<?xml version="1.0" encoding="UTF-8"?>

<!-- generated on mer 09 dic 2020 18:14:37 CET by Eclipse SUMO netedit Version 1.7.0
<configuration xmlns:xsi="http://www.w3.org/2001/XMLSchema-instance" xsi:noNamespaceSchemaLocation="http://sumo.dlr.de/xsd/netconvertConfiguration.xsd">

    <input>
        <sumo-net-file value="/home/carlo/Documents/IntelliLights_test_reti_neurali_diverse/IntelliLights_CNN_4_corsie_presenza_velocita_media_attesa_cumulata_media/intersection/incrocio_4_corsie.net.xml"/>
    </input>

    <output>
        <output-file value="/home/carlo/Documents/IntelliLights_test_reti_neurali_diverse/IntelliLights_CNN_4_corsie_presenza_velocita_media_attesa_cumulata_media/intersection/incrocio_4_corsie.net.xml"/>
    </output>

    <processing>
        <geometry.min-radius.fix.railways value="false"/>
        <geometry.max-grade.fix value="false"/>
        <offset.disable-normalization value="true"/>
        <lefthand value="false"/>
    </processing>

    <junctions>
        <no-turnarounds value="true"/>
        <junctions.corner-detail value="5"/>
        <junctions.limit-turn-speed value="5.5"/>
        <rectangular-lane-cut value="false"/>
    </junctions>

    <pedestrian>
        <walkingareas value="false"/>
    </pedestrian>

    <report>
        <aggregate-warnings value="5"/>
    </report>

</configuration>
-->

<net version="1.6" junctionCornerDetail="5" limitTurnSpeed="5.50" xmlns:xsi="http://www.w3.org/2001/XMLSchema-instance" xsi:noNamespaceSchemaLocation="http://sumo.dlr.de/xsd/net_file.xsd">

    <location netOffset="0.00,0.00" convBoundary="-800.00,-800.00,800.00,800.00" origBoundary="-10000000000.00,-10000000000.00,10000000000.00,10000000000.00" projParameter="!"/>

    <edge id=":TrafficLight_0" function="internal">
        <lane id=":TrafficLight_0_0" index="0" speed="6.51" length="9.03" shape="-11.20,16.80 -11.55,14.35 -12.60,12.60 -14.35,11.55 -16.80,11.20"/>
    </edge>
    <edge id=":TrafficLight_1" function="internal">
        <lane id=":TrafficLight_1_0" index="0" speed="13.89" length="33.60" shape="-11.20,16.80 -11.20,-16.80"/>
        <lane id=":TrafficLight_1_1" index="1" speed="13.89" length="33.60" shape="-8.00,16.80 -8.00,-16.80"/>
        <lane id=":TrafficLight_1_2" index="2" speed="13.89" length="33.60" shape="-4.80,16.80 -4.80,-16.80"/>
    </edge>
    <edge id=":TrafficLight_4" function="internal">
        <lane id=":TrafficLight_4_0" index="0" speed="11.36" length="29.67" shape="-1.60,16.80 -0.45,8.75 3.00,3.00 8.75,-0.45 16.80,-1.60"/>
    </edge>
    <edge id=":TrafficLight_5" function="internal">
        <lane id=":TrafficLight_5_0" index="0" speed="6.51" length="9.03" shape="16.80,11.20 14.35,11.55 12.60,12.60 11.55,14.35 11.20,16.80"/>
    </edge>
    <edge id=":TrafficLight_6" function="internal">
        <lane id=":TrafficLight_6_0" index="0" speed="13.89" length="33.60" shape="16.80,11.20 -16.80,11.20"/>
        <lane id=":TrafficLight_6_1" index="1" speed="13.89" length="33.60" shape="16.80,8.00 -16.80,8.00"/>
        <lane id=":TrafficLight_6_2" index="2" speed="13.89" length="33.60" shape="16.80,4.80 -16.80,4.80"/>
    </edge>
    <edge id=":TrafficLight_9" function="internal">
        <lane id=":TrafficLight_9_0" index="0" speed="11.36" length="29.67" shape="16.80,1.60 8.75,0.45 3.00,-3.00 -0.45,-8.75 -1.60,-16.80"/>
    </edge>
    <edge id=":TrafficLight_10" function="internal">
        <lane id=":TrafficLight_10_0" index="0" speed="6.51" length="9.03" shape="11.20,-16.80 11.55,-14.35 12.60,-12.60 14.35,-11.55 16.80,-11.20"/>
    </edge>
    <edge id=":TrafficLight_11" function="internal">
        <lane id=":TrafficLight_11_0" index="0" speed="13.89" length="33.60" shape="11.20,-16.80 11.20,16.80"/>
        <lane id=":TrafficLight_11_1" index="1" speed="13.89" length="33.60" shape="8.00,-16.80 8.00,16.80"/>
        <lane id=":TrafficLight_11_2" index="2" speed="13.89" length="33.60" shape="4.80,-16.80 4.80,16.80"/>
    </edge>
    <edge id=":TrafficLight_14" function="internal">
        <lane id=":TrafficLight_14_0" index="0" speed="11.36" length="29.67" shape="1.60,-16.80 0.45,-8.75 -3.00,-3.00 -8.75,0.45 -16.80,1.60"/>
    </edge>
    <edge id=":TrafficLight_15" function="internal">
        <lane id=":TrafficLight_15_0" index="0" speed="6.51" length="9.03" shape="-16.80,-11.20 -14.35,-11.55 -12.60,-12.60 -11.55,-14.35 -11.20,-16.80"/>
    </edge>
    <edge id=":TrafficLight_16" function="internal">
        <lane id=":TrafficLight_16_0" index="0" speed="13.89" length="33.60" shape="-16.80,-11.20 16.80,-11.20"/>
        <lane id=":TrafficLight_16_1" index="1" speed="13.89" length="33.60" shape="-16.80,-8.00 16.80,-8.00"/>
        <lane id=":TrafficLight_16_2" index="2" speed="13.89" length="33.60" shape="-16.80,-4.80 16.80,-4.80"/>
    </edge>
    <edge id=":TrafficLight_19" function="internal">
        <lane id=":TrafficLight_19_0" index="0" speed="11.36" length="29.67" shape="-16.80,-1.60 -8.75,-0.45 -3.00,3.00 0.45,8.75 1.60,16.80"/>
    </edge>

    <edge id="East2TrafficLight" from="EastEnd" to="TrafficLight" priority="-1" length="750.00" shape="-800.00,0.00 -700.00,0.00 0.00,0.00">
        <lane id="East2TrafficLight_0" index="0" speed="13.89" length="750.00" shape="-800.00,-11.20 -700.00,-11.20 -16.80,-11.20"/>
        <lane id="East2TrafficLight_1" index="1" speed="13.89" length="750.00" shape="-800.00,-8.00 -700.00,-8.00 -16.80,-8.00"/>
        <lane id="East2TrafficLight_2" index="2" speed="13.89" length="750.00" shape="-800.00,-4.80 -700.00,-4.80 -16.80,-4.80"/>
        <lane id="East2TrafficLight_3" index="3" speed="13.89" length="750.00" shape="-800.00,-1.60 -700.00,-1.60 -16.80,-1.60"/>
    </edge>
    <edge id="North2TrafficLight" from="NorthEnd" to="TrafficLight" priority="-1" length="750.00">
        <lane id="North2TrafficLight_0" index="0" speed="13.89" length="750.00" shape="-11.20,800.00 -11.20,16.80"/>
        <lane id="North2TrafficLight_1" index="1" speed="13.89" length="750.00" shape="-8.00,800.00 -8.00,16.80"/>
        <lane id="North2TrafficLight_2" index="2" speed="13.89" length="750.00" shape="-4.80,800.00 -4.80,16.80"/>
        <lane id="North2TrafficLight_3" index="3" speed="13.89" length="750.00" shape="-1.60,800.00 -1.60,16.80"/>
    </edge>
    <edge id="South2TrafficLight" from="SouthEnd" to="TrafficLight" priority="-1" length="750.00">
        <lane id="South2TrafficLight_0" index="0" speed="13.89" length="750.00" shape="11.20,-800.00 11.20,-16.80"/>
        <lane id="South2TrafficLight_1" index="1" speed="13.89" length="750.00" shape="8.00,-800.00 8.00,-16.80"/>
        <lane id="South2TrafficLight_2" index="2" speed="13.89" length="750.00" shape="4.80,-800.00 4.80,-16.80"/>
        <lane id="South2TrafficLight_3" index="3" speed="13.89" length="750.00" shape="1.60,-800.00 1.60,-16.80"/>
    </edge>
    <edge id="TrafficLight2East" from="TrafficLight" to="EastEnd" priority="-1" length="750.00" shape="0.00,0.00 -700.00,0.00 -800.00,0.00">
        <lane id="TrafficLight2East_0" index="0" speed="13.89" length="750.00" shape="-16.80,11.20 -700.00,11.20 -800.00,11.20"/>
        <lane id="TrafficLight2East_1" index="1" speed="13.89" length="750.00" shape="-16.80,8.00 -700.00,8.00 -800.00,8.00"/>
        <lane id="TrafficLight2East_2" index="2" speed="13.89" length="750.00" shape="-16.80,4.80 -700.00,4.80 -800.00,4.80"/>
        <lane id="TrafficLight2East_3" index="3" speed="13.89" length="750.00" shape="-16.80,1.60 -700.00,1.60 -800.00,1.60"/>
    </edge>
    <edge id="TrafficLight2North" from="TrafficLight" to="NorthEnd" priority="-1" length="750.00">
        <lane id="TrafficLight2North_0" index="0" speed="13.89" length="750.00" shape="11.20,16.80 11.20,800.00"/>
        <lane id="TrafficLight2North_1" index="1" speed="13.89" length="750.00" shape="8.00,16.80 8.00,800.00"/>
        <lane id="TrafficLight2North_2" index="2" speed="13.89" length="750.00" shape="4.80,16.80 4.80,800.00"/>
        <lane id="TrafficLight2North_3" index="3" speed="13.89" length="750.00" shape="1.60,16.80 1.60,800.00"/>
    </edge>
    <edge id="TrafficLight2South" from="TrafficLight" to="SouthEnd" priority="-1" length="750.00">
        <lane id="TrafficLight2South_0" index="0" speed="13.89" length="750.00" shape="-11.20,-16.80 -11.20,-800.00"/>
        <lane id="TrafficLight2South_1" index="1" speed="13.89" length="750.00" shape="-8.00,-16.80 -8.00,-800.00"/>
        <lane id="TrafficLight2South_2" index="2" speed="13.89" length="750.00" shape="-4.80,-16.80 -4.80,-800.00"/>
        <lane id="TrafficLight2South_3" index="3" speed="13.89" length="750.00" shape="-1.60,-16.80 -1.60,-800.00"/>
    </edge>
    <edge id="TrafficLight2West" from="TrafficLight" to="WestEnd" priority="-1" length="750.00" shape="0.00,0.00 600.00,0.00 800.00,0.00">
        <lane id="TrafficLight2West_0" index="0" speed="13.89" length="750.00" shape="16.80,-11.20 600.00,-11.20 800.00,-11.20"/>
        <lane id="TrafficLight2West_1" index="1" speed="13.89" length="750.00" shape="16.80,-8.00 600.00,-8.00 800.00,-8.00"/>
        <lane id="TrafficLight2West_2" index="2" speed="13.89" length="750.00" shape="16.80,-4.80 600.00,-4.80 800.00,-4.80"/>
        <lane id="TrafficLight2West_3" index="3" speed="13.89" length="750.00" shape="16.80,-1.60 600.00,-1.60 800.00,-1.60"/>
    </edge>
    <edge id="West2TrafficLight" from="WestEnd" to="TrafficLight" priority="-1" length="750.00">
        <lane id="West2TrafficLight_0" index="0" speed="13.89" length="750.00" shape="800.00,11.20 16.80,11.20"/>
        <lane id="West2TrafficLight_1" index="1" speed="13.89" length="750.00" shape="800.00,8.00 16.80,8.00"/>
        <lane id="West2TrafficLight_2" index="2" speed="13.89" length="750.00" shape="800.00,4.80 16.80,4.80"/>
        <lane id="West2TrafficLight_3" index="3" speed="13.89" length="750.00" shape="800.00,1.60 16.80,1.60"/>
    </edge>

    <tlLogic id="TrafficLight" type="static" programID="0" offset="0">
        <phase duration="100" state="GGGGrrrrrrGGGGrrrrrr"/>
        <phase duration="100" state="yyyyrrrrrryyyyrrrrrr"/>
        <phase duration="100" state="rrrrGrrrrrrrrrGrrrrr"/>
        <phase duration="100" state="rrrryrrrrrrrrryrrrrr"/>
        <phase duration="100" state="rrrrrGGGGrrrrrrGGGGr"/>
        <phase duration="100" state="rrrrryyyyrrrrrryyyyr"/>
        <phase duration="100" state="rrrrrrrrrGrrrrrrrrrG"/>
        <phase duration="100" state="rrrrrrrrryrrrrrrrrry"/>
    </tlLogic>

    <junction id="EastEnd" type="dead_end" x="-800.00" y="0.00" incLanes="TrafficLight2East_0 TrafficLight2East_1 TrafficLight2East_2 TrafficLight2East_3" intLanes="" shape="-800.00,0.00 -800.00,12.80 -800.00,0.00"/>
    <junction id="NorthEnd" type="dead_end" x="0.00" y="800.00" incLanes="TrafficLight2North_0 TrafficLight2North_1 TrafficLight2North_2 TrafficLight2North_3" intLanes="" shape="0.00,800.00 12.80,800.00 0.00,800.00"/>
    <junction id="SouthEnd" type="dead_end" x="0.00" y="-800.00" incLanes="TrafficLight2South_0 TrafficLight2South_1 TrafficLight2South_2 TrafficLight2South_3" intLanes="" shape="0.00,-800.00 -12.80,-800.00 0.00,-800.00"/>
    <junction id="TrafficLight" type="traffic_light" x="0.00" y="0.00" incLanes="North2TrafficLight_0 North2TrafficLight_1 North2TrafficLight_2 North2TrafficLight_3 West2TrafficLight_0 West2TrafficLight_1 West2TrafficLight_2 West2TrafficLight_3 South2TrafficLight_0 South2TrafficLight_1 South2TrafficLight_2 South2TrafficLight_3 East2TrafficLight_0 East2TrafficLight_1 East2TrafficLight_2 East2TrafficLight_3" intLanes=":TrafficLight_0_0 :TrafficLight_1_0 :TrafficLight_1_1 :TrafficLight_1_2 :TrafficLight_4_0 :TrafficLight_5_0 :TrafficLight_6_0 :TrafficLight_6_1 :TrafficLight_6_2 :TrafficLight_9_0 :TrafficLight_10_0 :TrafficLight_11_0 :TrafficLight_11_1 :TrafficLight_11_2 :TrafficLight_14_0 :TrafficLight_15_0 :TrafficLight_16_0 :TrafficLight_16_1 :TrafficLight_16_2 :TrafficLight_19_0" shape="-12.80,16.80 12.80,16.80 13.24,14.58 13.80,13.80 14.58,13.24 15.58,12.91 16.80,12.80 16.80,-12.80 14.58,-13.24 13.80,-13.80 13.24,-14.58 12.91,-15.58 12.80,-16.80 -12.80,-16.80 -13.24,-14.58 -13.80,-13.80 -14.58,-13.24 -15.58,-12.91 -16.80,-12.80 -16.80,12.80 -14.58,13.24 -13.80,13.80 -13.24,14.58 -12.91,15.58">
        <request index="0"  response="00000000000000000000" foes="00000000000111000000" cont="0"/>
        <request index="1"  response="00000000000000000000" foes="11111100000111000000" cont="0"/>
        <request index="2"  response="00000000000000000000" foes="11111100000111000000" cont="0"/>
        <request index="3"  response="00000000000000000000" foes="11111100000111000000" cont="0"/>
        <request index="4"  response="00000011100000000000" foes="10000011101111000000" cont="0"/>
        <request index="5"  response="00000011100000000000" foes="00000011100000000000" cont="0"/>
        <request index="6"  response="00000011100000011111" foes="10000011100000011111" cont="0"/>
        <request index="7"  response="00000011100000011111" foes="10000011100000011111" cont="0"/>
        <request index="8"  response="00000011100000011111" foes="10000011100000011111" cont="0"/>
        <request index="9"  response="01110111100000010000" foes="01110111100000010000" cont="0"/>
        <request index="10" response="00000000000000000000" foes="01110000000000000000" cont="0"/>
        <request index="11" response="00000000000000000000" foes="01110000001111110000" cont="0"/>
        <request index="12" response="00000000000000000000" foes="01110000001111110000" cont="0"/>
        <request index="13" response="00000000000000000000" foes="01110000001111110000" cont="0"/>
        <request index="14" response="00000000000000001110" foes="11110000001000001110" cont="0"/>
        <request index="15" response="00000000000000001110" foes="00000000000000001110" cont="0"/>
        <request index="16" response="00000111110000001110" foes="00000111111000001110" cont="0"/>
        <request index="17" response="00000111110000001110" foes="00000111111000001110" cont="0"/>
        <request index="18" response="00000111110000001110" foes="00000111111000001110" cont="0"/>
        <request index="19" response="00000100000111011110" foes="00000100000111011110" cont="0"/>
    </junction>
    <junction id="WestEnd" type="dead_end" x="800.00" y="0.00" incLanes="TrafficLight2West_0 TrafficLight2West_1 TrafficLight2West_2 TrafficLight2West_3" intLanes="" shape="800.00,0.00 800.00,-12.80 800.00,0.00"/>

    <connection from="East2TrafficLight" to="TrafficLight2South" fromLane="0" toLane="0" via=":TrafficLight_15_0" tl="TrafficLight" linkIndex="15" dir="r" state="o"/>
    <connection from="East2TrafficLight" to="TrafficLight2West" fromLane="0" toLane="0" via=":TrafficLight_16_0" tl="TrafficLight" linkIndex="16" dir="s" state="o"/>
    <connection from="East2TrafficLight" to="TrafficLight2West" fromLane="1" toLane="1" via=":TrafficLight_16_1" tl="TrafficLight" linkIndex="17" dir="s" state="o"/>
    <connection from="East2TrafficLight" to="TrafficLight2West" fromLane="2" toLane="2" via=":TrafficLight_16_2" tl="TrafficLight" linkIndex="18" dir="s" state="o"/>
    <connection from="East2TrafficLight" to="TrafficLight2North" fromLane="3" toLane="3" via=":TrafficLight_19_0" tl="TrafficLight" linkIndex="19" dir="l" state="o"/>
    <connection from="North2TrafficLight" to="TrafficLight2East" fromLane="0" toLane="0" via=":TrafficLight_0_0" tl="TrafficLight" linkIndex="0" dir="r" state="O"/>
    <connection from="North2TrafficLight" to="TrafficLight2South" fromLane="0" toLane="0" via=":TrafficLight_1_0" tl="TrafficLight" linkIndex="1" dir="s" state="O"/>
    <connection from="North2TrafficLight" to="TrafficLight2South" fromLane="1" toLane="1" via=":TrafficLight_1_1" tl="TrafficLight" linkIndex="2" dir="s" state="O"/>
    <connection from="North2TrafficLight" to="TrafficLight2South" fromLane="2" toLane="2" via=":TrafficLight_1_2" tl="TrafficLight" linkIndex="3" dir="s" state="O"/>
    <connection from="North2TrafficLight" to="TrafficLight2West" fromLane="3" toLane="3" via=":TrafficLight_4_0" tl="TrafficLight" linkIndex="4" dir="l" state="o"/>
    <connection from="South2TrafficLight" to="TrafficLight2West" fromLane="0" toLane="0" via=":TrafficLight_10_0" tl="TrafficLight" linkIndex="10" dir="r" state="O"/>
    <connection from="South2TrafficLight" to="TrafficLight2North" fromLane="0" toLane="0" via=":TrafficLight_11_0" tl="TrafficLight" linkIndex="11" dir="s" state="O"/>
    <connection from="South2TrafficLight" to="TrafficLight2North" fromLane="1" toLane="1" via=":TrafficLight_11_1" tl="TrafficLight" linkIndex="12" dir="s" state="O"/>
    <connection from="South2TrafficLight" to="TrafficLight2North" fromLane="2" toLane="2" via=":TrafficLight_11_2" tl="TrafficLight" linkIndex="13" dir="s" state="O"/>
    <connection from="South2TrafficLight" to="TrafficLight2East" fromLane="3" toLane="3" via=":TrafficLight_14_0" tl="TrafficLight" linkIndex="14" dir="l" state="o"/>
    <connection from="West2TrafficLight" to="TrafficLight2North" fromLane="0" toLane="0" via=":TrafficLight_5_0" tl="TrafficLight" linkIndex="5" dir="r" state="o"/>
    <connection from="West2TrafficLight" to="TrafficLight2East" fromLane="0" toLane="0" via=":TrafficLight_6_0" tl="TrafficLight" linkIndex="6" dir="s" state="o"/>
    <connection from="West2TrafficLight" to="TrafficLight2East" fromLane="1" toLane="1" via=":TrafficLight_6_1" tl="TrafficLight" linkIndex="7" dir="s" state="o"/>
    <connection from="West2TrafficLight" to="TrafficLight2East" fromLane="2" toLane="2" via=":TrafficLight_6_2" tl="TrafficLight" linkIndex="8" dir="s" state="o"/>
    <connection from="West2TrafficLight" to="TrafficLight2South" fromLane="3" toLane="3" via=":TrafficLight_9_0" tl="TrafficLight" linkIndex="9" dir="l" state="o"/>

    <connection from=":TrafficLight_0" to="TrafficLight2East" fromLane="0" toLane="0" dir="r" state="M"/>
    <connection from=":TrafficLight_1" to="TrafficLight2South" fromLane="0" toLane="0" dir="s" state="M"/>
    <connection from=":TrafficLight_1" to="TrafficLight2South" fromLane="1" toLane="1" dir="s" state="M"/>
    <connection from=":TrafficLight_1" to="TrafficLight2South" fromLane="2" toLane="2" dir="s" state="M"/>
    <connection from=":TrafficLight_4" to="TrafficLight2West" fromLane="0" toLane="3" dir="l" state="M"/>
    <connection from=":TrafficLight_5" to="TrafficLight2North" fromLane="0" toLane="0" dir="r" state="M"/>
    <connection from=":TrafficLight_6" to="TrafficLight2East" fromLane="0" toLane="0" dir="s" state="M"/>
    <connection from=":TrafficLight_6" to="TrafficLight2East" fromLane="1" toLane="1" dir="s" state="M"/>
    <connection from=":TrafficLight_6" to="TrafficLight2East" fromLane="2" toLane="2" dir="s" state="M"/>
    <connection from=":TrafficLight_9" to="TrafficLight2South" fromLane="0" toLane="3" dir="l" state="M"/>
    <connection from=":TrafficLight_10" to="TrafficLight2West" fromLane="0" toLane="0" dir="r" state="M"/>
    <connection from=":TrafficLight_11" to="TrafficLight2North" fromLane="0" toLane="0" dir="s" state="M"/>
    <connection from=":TrafficLight_11" to="TrafficLight2North" fromLane="1" toLane="1" dir="s" state="M"/>
    <connection from=":TrafficLight_11" to="TrafficLight2North" fromLane="2" toLane="2" dir="s" state="M"/>
    <connection from=":TrafficLight_14" to="TrafficLight2East" fromLane="0" toLane="3" dir="l" state="M"/>
    <connection from=":TrafficLight_15" to="TrafficLight2South" fromLane="0" toLane="0" dir="r" state="M"/>
    <connection from=":TrafficLight_16" to="TrafficLight2West" fromLane="0" toLane="0" dir="s" state="M"/>
    <connection from=":TrafficLight_16" to="TrafficLight2West" fromLane="1" toLane="1" dir="s" state="M"/>
    <connection from=":TrafficLight_16" to="TrafficLight2West" fromLane="2" toLane="2" dir="s" state="M"/>
    <connection from=":TrafficLight_19" to="TrafficLight2North" fromLane="0" toLane="3" dir="l" state="M"/>

</net>
