<?xml version="1.0" encoding="UTF-8"?>

<!-- generated on 09/03/20 11:21:03 by Eclipse SUMO netedit Version 1.6.0
<configuration xmlns:xsi="http://www.w3.org/2001/XMLSchema-instance" xsi:noNamespaceSchemaLocation="http://sumo.dlr.de/xsd/netconvertConfiguration.xsd">

    <input>
        <sumo-net-file value="C:\Users\CCarta\Documents\Uni\Sistemi%20Complessi%20Modelli%20e%20simulazione\Progetto\IntelliLights\incrocio_prova.net.xml"/>
    </input>

    <output>
        <output-file value="C:\Users\CCarta\Documents\Uni\Sistemi%20Complessi%20Modelli%20e%20simulazione\Progetto\IntelliLights\incrocio_prova.net.xml"/>
    </output>

    <processing>
        <geometry.min-radius.fix.railways value="false"/>
        <geometry.max-grade.fix value="false"/>
        <offset.disable-normalization value="true"/>
        <lefthand value="false"/>
    </processing>

    <junctions>
        <no-turnarounds value="true"/>
        <junctions.corner-detail value="5"/>
        <junctions.limit-turn-speed value="5.5"/>
        <rectangular-lane-cut value="false"/>
    </junctions>

    <pedestrian>
        <walkingareas value="false"/>
    </pedestrian>

    <report>
        <aggregate-warnings value="5"/>
    </report>

</configuration>
-->

<net version="1.6" junctionCornerDetail="5" limitTurnSpeed="5.50" xmlns:xsi="http://www.w3.org/2001/XMLSchema-instance" xsi:noNamespaceSchemaLocation="http://sumo.dlr.de/xsd/net_file.xsd">

    <location netOffset="0.00,0.00" convBoundary="0.00,-100.00,200.00,100.00" origBoundary="-10000000000.00,-10000000000.00,10000000000.00,10000000000.00" projParameter="!"/>

    <edge id=":TrafficLight_0" function="internal">
        <lane id=":TrafficLight_0_0" index="0" speed="6.51" length="9.03" shape="95.20,10.40 94.85,7.95 93.80,6.20 92.05,5.15 89.60,4.80"/>
    </edge>
    <edge id=":TrafficLight_1" function="internal">
        <lane id=":TrafficLight_1_0" index="0" speed="13.89" length="20.80" shape="95.20,10.40 95.20,-10.40"/>
        <lane id=":TrafficLight_1_1" index="1" speed="13.89" length="20.80" shape="98.40,10.40 98.40,-10.40"/>
    </edge>
    <edge id=":TrafficLight_3" function="internal">
        <lane id=":TrafficLight_3_0" index="0" speed="9.26" length="6.96" shape="98.40,10.40 99.15,5.15 100.00,3.73"/>
    </edge>
    <edge id=":TrafficLight_16" function="internal">
        <lane id=":TrafficLight_16_0" index="0" speed="9.26" length="12.40" shape="100.00,3.73 101.40,1.40 105.15,-0.85 110.40,-1.60"/>
    </edge>
    <edge id=":TrafficLight_4" function="internal">
        <lane id=":TrafficLight_4_0" index="0" speed="6.51" length="9.03" shape="110.40,4.80 107.95,5.15 106.20,6.20 105.15,7.95 104.80,10.40"/>
    </edge>
    <edge id=":TrafficLight_5" function="internal">
        <lane id=":TrafficLight_5_0" index="0" speed="13.89" length="20.80" shape="110.40,4.80 89.60,4.80"/>
        <lane id=":TrafficLight_5_1" index="1" speed="13.89" length="20.80" shape="110.40,1.60 89.60,1.60"/>
    </edge>
    <edge id=":TrafficLight_7" function="internal">
        <lane id=":TrafficLight_7_0" index="0" speed="9.26" length="6.96" shape="110.40,1.60 105.15,0.85 103.73,-0.00"/>
    </edge>
    <edge id=":TrafficLight_17" function="internal">
        <lane id=":TrafficLight_17_0" index="0" speed="9.26" length="12.40" shape="103.73,-0.00 101.40,-1.40 99.15,-5.15 98.40,-10.40"/>
    </edge>
    <edge id=":TrafficLight_8" function="internal">
        <lane id=":TrafficLight_8_0" index="0" speed="6.51" length="9.03" shape="104.80,-10.40 105.15,-7.95 106.20,-6.20 107.95,-5.15 110.40,-4.80"/>
    </edge>
    <edge id=":TrafficLight_9" function="internal">
        <lane id=":TrafficLight_9_0" index="0" speed="13.89" length="20.80" shape="104.80,-10.40 104.80,10.40"/>
        <lane id=":TrafficLight_9_1" index="1" speed="13.89" length="20.80" shape="101.60,-10.40 101.60,10.40"/>
    </edge>
    <edge id=":TrafficLight_11" function="internal">
        <lane id=":TrafficLight_11_0" index="0" speed="9.26" length="6.96" shape="101.60,-10.40 100.85,-5.15 100.00,-3.73"/>
    </edge>
    <edge id=":TrafficLight_18" function="internal">
        <lane id=":TrafficLight_18_0" index="0" speed="9.26" length="12.40" shape="100.00,-3.73 98.60,-1.40 94.85,0.85 89.60,1.60"/>
    </edge>
    <edge id=":TrafficLight_12" function="internal">
        <lane id=":TrafficLight_12_0" index="0" speed="6.51" length="9.03" shape="89.60,-4.80 92.05,-5.15 93.80,-6.20 94.85,-7.95 95.20,-10.40"/>
    </edge>
    <edge id=":TrafficLight_13" function="internal">
        <lane id=":TrafficLight_13_0" index="0" speed="13.89" length="20.80" shape="89.60,-4.80 110.40,-4.80"/>
        <lane id=":TrafficLight_13_1" index="1" speed="13.89" length="20.80" shape="89.60,-1.60 110.40,-1.60"/>
    </edge>
    <edge id=":TrafficLight_15" function="internal">
        <lane id=":TrafficLight_15_0" index="0" speed="9.26" length="6.96" shape="89.60,-1.60 94.85,-0.85 96.27,0.00"/>
    </edge>
    <edge id=":TrafficLight_19" function="internal">
        <lane id=":TrafficLight_19_0" index="0" speed="9.26" length="12.40" shape="96.27,0.00 98.60,1.40 100.85,5.15 101.60,10.40"/>
    </edge>

    <edge id="East2TrafficLight" from="TrafficLight" to="EastEnd" priority="-1">
        <lane id="East2TrafficLight_0" index="0" speed="13.89" length="89.60" shape="89.60,4.80 0.00,4.80"/>
        <lane id="East2TrafficLight_1" index="1" speed="13.89" length="89.60" shape="89.60,1.60 0.00,1.60"/>
    </edge>
    <edge id="North2TrafficLight" from="NorthEnd" to="TrafficLight" priority="-1">
        <lane id="North2TrafficLight_0" index="0" speed="13.89" length="89.60" shape="95.20,100.00 95.20,10.40"/>
        <lane id="North2TrafficLight_1" index="1" speed="13.89" length="89.60" shape="98.40,100.00 98.40,10.40"/>
    </edge>
    <edge id="South2TrafficLight" from="SouthEnd" to="TrafficLight" priority="-1">
        <lane id="South2TrafficLight_0" index="0" speed="13.89" length="89.60" shape="104.80,-100.00 104.80,-10.40"/>
        <lane id="South2TrafficLight_1" index="1" speed="13.89" length="89.60" shape="101.60,-100.00 101.60,-10.40"/>
    </edge>
    <edge id="TrafficLight2East" from="EastEnd" to="TrafficLight" priority="-1">
        <lane id="TrafficLight2East_0" index="0" speed="13.89" length="89.60" shape="0.00,-4.80 89.60,-4.80"/>
        <lane id="TrafficLight2East_1" index="1" speed="13.89" length="89.60" shape="0.00,-1.60 89.60,-1.60"/>
    </edge>
    <edge id="TrafficLight2North" from="TrafficLight" to="NorthEnd" priority="-1">
        <lane id="TrafficLight2North_0" index="0" speed="13.89" length="89.60" shape="104.80,10.40 104.80,100.00"/>
        <lane id="TrafficLight2North_1" index="1" speed="13.89" length="89.60" shape="101.60,10.40 101.60,100.00"/>
    </edge>
    <edge id="TrafficLight2South" from="TrafficLight" to="SouthEnd" priority="-1" spreadType="roadCenter">
        <lane id="TrafficLight2South_0" index="0" speed="13.89" length="89.60" shape="95.20,-10.40 95.20,-100.00"/>
        <lane id="TrafficLight2South_1" index="1" speed="13.89" length="89.60" shape="98.40,-10.40 98.40,-100.00"/>
    </edge>
    <edge id="TrafficLight2West" from="TrafficLight" to="WestEnd" priority="-1">
        <lane id="TrafficLight2West_0" index="0" speed="13.89" length="89.60" shape="110.40,-4.80 200.00,-4.80"/>
        <lane id="TrafficLight2West_1" index="1" speed="13.89" length="89.60" shape="110.40,-1.60 200.00,-1.60"/>
    </edge>
    <edge id="WE2TrafficLights" from="WestEnd" to="TrafficLight" priority="-1">
        <lane id="WE2TrafficLights_0" index="0" speed="13.89" length="89.60" shape="200.00,4.80 110.40,4.80"/>
        <lane id="WE2TrafficLights_1" index="1" speed="13.89" length="89.60" shape="200.00,1.60 110.40,1.60"/>
    </edge>

    <tlLogic id="TrafficLight" type="static" programID="0" offset="0">
        <phase duration="42" state="GGGgrrrrGGGgrrrr"/>
        <phase duration="3"  state="yyyyrrrryyyyrrrr"/>
        <phase duration="42" state="rrrrGGGgrrrrGGGg"/>
        <phase duration="3"  state="rrrryyyyrrrryyyy"/>
    </tlLogic>

    <junction id="EastEnd" type="dead_end" x="0.00" y="0.00" incLanes="East2TrafficLight_0 East2TrafficLight_1" intLanes="" shape="0.00,0.00 0.00,6.40 0.00,0.00"/>
    <junction id="NorthEnd" type="dead_end" x="100.00" y="100.00" incLanes="TrafficLight2North_0 TrafficLight2North_1" intLanes="" shape="100.00,100.00 106.40,100.00 100.00,100.00"/>
    <junction id="SouthEnd" type="dead_end" x="100.00" y="-100.00" incLanes="TrafficLight2South_0 TrafficLight2South_1" intLanes="" shape="100.00,-100.00 93.60,-100.00 100.00,-100.00"/>
    <junction id="TrafficLight" type="traffic_light" x="100.00" y="0.00" incLanes="North2TrafficLight_0 North2TrafficLight_1 WE2TrafficLights_0 WE2TrafficLights_1 South2TrafficLight_0 South2TrafficLight_1 TrafficLight2East_0 TrafficLight2East_1" intLanes=":TrafficLight_0_0 :TrafficLight_1_0 :TrafficLight_1_1 :TrafficLight_16_0 :TrafficLight_4_0 :TrafficLight_5_0 :TrafficLight_5_1 :TrafficLight_17_0 :TrafficLight_8_0 :TrafficLight_9_0 :TrafficLight_9_1 :TrafficLight_18_0 :TrafficLight_12_0 :TrafficLight_13_0 :TrafficLight_13_1 :TrafficLight_19_0" shape="93.60,10.40 106.40,10.40 106.84,8.18 107.40,7.40 108.18,6.84 109.18,6.51 110.40,6.40 110.40,-6.40 108.18,-6.84 107.40,-7.40 106.84,-8.18 106.51,-9.18 106.40,-10.40 93.60,-10.40 93.16,-8.18 92.60,-7.40 91.82,-6.84 90.82,-6.51 89.60,-6.40 89.60,6.40 91.82,6.84 92.60,7.40 93.16,8.18 93.49,9.18">
        <request index="0"  response="0000000000000000" foes="0000000001100000" cont="0"/>
        <request index="1"  response="1000000010000000" foes="1111100011100000" cont="0"/>
        <request index="2"  response="1000000010000000" foes="1111100011100000" cont="0"/>
        <request index="3"  response="1000011010000000" foes="1110011011100000" cont="1"/>
        <request index="4"  response="0000011000000000" foes="0000011000000000" cont="0"/>
        <request index="5"  response="0000111000001111" foes="1000111000001111" cont="0"/>
        <request index="6"  response="0000111000001111" foes="1000111000001111" cont="0"/>
        <request index="7"  response="0110111000001110" foes="0110111000001110" cont="1"/>
        <request index="8"  response="0000000000000000" foes="0110000000000000" cont="0"/>
        <request index="9"  response="1000000010000000" foes="1110000011111000" cont="0"/>
        <request index="10" response="1000000010000000" foes="1110000011111000" cont="0"/>
        <request index="11" response="1000000010000110" foes="1110000011100110" cont="1"/>
        <request index="12" response="0000000000000110" foes="0000000000000110" cont="0"/>
        <request index="13" response="0000111100001110" foes="0000111110001110" cont="0"/>
        <request index="14" response="0000111100001110" foes="0000111110001110" cont="0"/>
        <request index="15" response="0000111001101110" foes="0000111001101110" cont="1"/>
    </junction>
    <junction id="WestEnd" type="dead_end" x="200.00" y="0.00" incLanes="TrafficLight2West_0 TrafficLight2West_1" intLanes="" shape="200.00,0.00 200.00,-6.40 200.00,0.00"/>

    <junction id=":TrafficLight_16_0" type="internal" x="100.00" y="3.73" incLanes=":TrafficLight_3_0 South2TrafficLight_0 South2TrafficLight_1" intLanes=":TrafficLight_5_0 :TrafficLight_5_1 :TrafficLight_7_0 :TrafficLight_8_0 :TrafficLight_9_0 :TrafficLight_9_1 :TrafficLight_13_0 :TrafficLight_13_1 :TrafficLight_15_0"/>
    <junction id=":TrafficLight_17_0" type="internal" x="103.73" y="-0.00" incLanes=":TrafficLight_7_0 TrafficLight2East_0 TrafficLight2East_1" intLanes=":TrafficLight_1_0 :TrafficLight_1_1 :TrafficLight_3_0 :TrafficLight_9_0 :TrafficLight_9_1 :TrafficLight_11_0 :TrafficLight_12_0 :TrafficLight_13_0 :TrafficLight_13_1"/>
    <junction id=":TrafficLight_18_0" type="internal" x="100.00" y="-3.73" incLanes=":TrafficLight_11_0 North2TrafficLight_0 North2TrafficLight_1" intLanes=":TrafficLight_0_0 :TrafficLight_1_0 :TrafficLight_1_1 :TrafficLight_5_0 :TrafficLight_5_1 :TrafficLight_7_0 :TrafficLight_13_0 :TrafficLight_13_1 :TrafficLight_15_0"/>
    <junction id=":TrafficLight_19_0" type="internal" x="96.27" y="0.00" incLanes=":TrafficLight_15_0 WE2TrafficLights_0 WE2TrafficLights_1" intLanes=":TrafficLight_1_0 :TrafficLight_1_1 :TrafficLight_3_0 :TrafficLight_4_0 :TrafficLight_5_0 :TrafficLight_5_1 :TrafficLight_9_0 :TrafficLight_9_1 :TrafficLight_11_0"/>

    <connection from="North2TrafficLight" to="TrafficLight2East" fromLane="0" toLane="0" via=":TrafficLight_0_0" tl="TrafficLight" linkIndex="0" dir="r" state="O"/>
    <connection from="North2TrafficLight" to="TrafficLight2South" fromLane="0" toLane="0" via=":TrafficLight_1_0" tl="TrafficLight" linkIndex="1" dir="s" state="O"/>
    <connection from="North2TrafficLight" to="TrafficLight2South" fromLane="1" toLane="1" via=":TrafficLight_1_1" tl="TrafficLight" linkIndex="2" dir="s" state="O"/>
    <connection from="North2TrafficLight" to="TrafficLight2West" fromLane="1" toLane="1" via=":TrafficLight_3_0" tl="TrafficLight" linkIndex="3" dir="l" state="o"/>
    <connection from="South2TrafficLight" to="TrafficLight2West" fromLane="0" toLane="0" via=":TrafficLight_8_0" tl="TrafficLight" linkIndex="8" dir="r" state="O"/>
    <connection from="South2TrafficLight" to="TrafficLight2North" fromLane="0" toLane="0" via=":TrafficLight_9_0" tl="TrafficLight" linkIndex="9" dir="s" state="O"/>
    <connection from="South2TrafficLight" to="TrafficLight2North" fromLane="1" toLane="1" via=":TrafficLight_9_1" tl="TrafficLight" linkIndex="10" dir="s" state="O"/>
    <connection from="South2TrafficLight" to="TrafficLight2East" fromLane="1" toLane="1" via=":TrafficLight_11_0" tl="TrafficLight" linkIndex="11" dir="l" state="o"/>
    <connection from="TrafficLight2East" to="TrafficLight2South" fromLane="0" toLane="0" via=":TrafficLight_12_0" tl="TrafficLight" linkIndex="12" dir="r" state="o"/>
    <connection from="TrafficLight2East" to="TrafficLight2West" fromLane="0" toLane="0" via=":TrafficLight_13_0" tl="TrafficLight" linkIndex="13" dir="s" state="o"/>
    <connection from="TrafficLight2East" to="TrafficLight2West" fromLane="1" toLane="1" via=":TrafficLight_13_1" tl="TrafficLight" linkIndex="14" dir="s" state="o"/>
    <connection from="TrafficLight2East" to="TrafficLight2North" fromLane="1" toLane="1" via=":TrafficLight_15_0" tl="TrafficLight" linkIndex="15" dir="l" state="o"/>
    <connection from="WE2TrafficLights" to="TrafficLight2North" fromLane="0" toLane="0" via=":TrafficLight_4_0" tl="TrafficLight" linkIndex="4" dir="r" state="o"/>
    <connection from="WE2TrafficLights" to="TrafficLight2East" fromLane="0" toLane="0" via=":TrafficLight_5_0" tl="TrafficLight" linkIndex="5" dir="s" state="o"/>
    <connection from="WE2TrafficLights" to="TrafficLight2East" fromLane="1" toLane="1" via=":TrafficLight_5_1" tl="TrafficLight" linkIndex="6" dir="s" state="o"/>
    <connection from="WE2TrafficLights" to="TrafficLight2South" fromLane="1" toLane="1" via=":TrafficLight_7_0" tl="TrafficLight" linkIndex="7" dir="l" state="o"/>

    <connection from=":TrafficLight_0" to="East2TrafficLight" fromLane="0" toLane="0" dir="r" state="M"/>
    <connection from=":TrafficLight_1" to="TrafficLight2South" fromLane="0" toLane="0" dir="s" state="M"/>
    <connection from=":TrafficLight_1" to="TrafficLight2South" fromLane="1" toLane="1" dir="s" state="M"/>
    <connection from=":TrafficLight_3" to="TrafficLight2West" fromLane="0" toLane="1" via=":TrafficLight_16_0" dir="l" state="m"/>
    <connection from=":TrafficLight_16" to="TrafficLight2West" fromLane="0" toLane="1" dir="l" state="M"/>
    <connection from=":TrafficLight_4" to="TrafficLight2North" fromLane="0" toLane="0" dir="r" state="M"/>
    <connection from=":TrafficLight_5" to="East2TrafficLight" fromLane="0" toLane="0" dir="s" state="M"/>
    <connection from=":TrafficLight_5" to="East2TrafficLight" fromLane="1" toLane="1" dir="s" state="M"/>
    <connection from=":TrafficLight_7" to="TrafficLight2South" fromLane="0" toLane="1" via=":TrafficLight_17_0" dir="l" state="m"/>
    <connection from=":TrafficLight_17" to="TrafficLight2South" fromLane="0" toLane="1" dir="l" state="M"/>
    <connection from=":TrafficLight_8" to="TrafficLight2West" fromLane="0" toLane="0" dir="r" state="M"/>
    <connection from=":TrafficLight_9" to="TrafficLight2North" fromLane="0" toLane="0" dir="s" state="M"/>
    <connection from=":TrafficLight_9" to="TrafficLight2North" fromLane="1" toLane="1" dir="s" state="M"/>
    <connection from=":TrafficLight_11" to="East2TrafficLight" fromLane="0" toLane="1" via=":TrafficLight_18_0" dir="l" state="m"/>
    <connection from=":TrafficLight_18" to="East2TrafficLight" fromLane="0" toLane="1" dir="l" state="M"/>
    <connection from=":TrafficLight_12" to="TrafficLight2South" fromLane="0" toLane="0" dir="r" state="M"/>
    <connection from=":TrafficLight_13" to="TrafficLight2West" fromLane="0" toLane="0" dir="s" state="M"/>
    <connection from=":TrafficLight_13" to="TrafficLight2West" fromLane="1" toLane="1" dir="s" state="M"/>
    <connection from=":TrafficLight_15" to="TrafficLight2North" fromLane="0" toLane="1" via=":TrafficLight_19_0" dir="l" state="m"/>
    <connection from=":TrafficLight_19" to="TrafficLight2North" fromLane="0" toLane="1" dir="l" state="M"/>

</net>
