<?xml version="1.0" encoding="UTF-8"?>

<!-- generated on mar 01 set 2020 17:15:03 CEST by Eclipse SUMO netedit Version 1.6.0
<configuration xmlns:xsi="http://www.w3.org/2001/XMLSchema-instance" xsi:noNamespaceSchemaLocation="http://sumo.dlr.de/xsd/netconvertConfiguration.xsd">

    <input>
        <sumo-net-file value="/home/carlo/Documents/sumo_networks/incrocio_prova.net.xml"/>
    </input>

    <output>
        <output-file value="/home/carlo/Documents/sumo_networks/incrocio_prova.net.xml"/>
    </output>

    <processing>
        <geometry.min-radius.fix.railways value="false"/>
        <geometry.max-grade.fix value="false"/>
        <offset.disable-normalization value="true"/>
        <lefthand value="false"/>
    </processing>

    <junctions>
        <no-turnarounds value="true"/>
        <junctions.corner-detail value="5"/>
        <junctions.limit-turn-speed value="5.5"/>
        <rectangular-lane-cut value="false"/>
    </junctions>

    <pedestrian>
        <walkingareas value="false"/>
    </pedestrian>

    <netedit>
        <route-files value="/home/carlo/Documents/sumo_networks/net.rou.xml"/>
    </netedit>

    <report>
        <aggregate-warnings value="5"/>
    </report>

</configuration>
-->

<net version="1.6" junctionCornerDetail="5" limitTurnSpeed="5.50" xmlns:xsi="http://www.w3.org/2001/XMLSchema-instance" xsi:noNamespaceSchemaLocation="http://sumo.dlr.de/xsd/net_file.xsd">

    <location netOffset="0.00,0.00" convBoundary="0.00,-100.00,200.00,100.00" origBoundary="-10000000000.00,-10000000000.00,10000000000.00,10000000000.00" projParameter="!"/>

    <edge id=":gneJ6_0" function="internal">
        <lane id=":gneJ6_0_0" index="0" speed="6.51" length="9.03" shape="95.20,10.40 94.85,7.95 93.80,6.20 92.05,5.15 89.60,4.80"/>
    </edge>
    <edge id=":gneJ6_1" function="internal">
        <lane id=":gneJ6_1_0" index="0" speed="13.89" length="20.80" shape="95.20,10.40 95.20,-10.40"/>
    </edge>
    <edge id=":gneJ6_2" function="internal">
        <lane id=":gneJ6_2_0" index="0" speed="9.26" length="19.35" shape="98.40,10.40 99.15,5.15 101.40,1.40 105.15,-0.85 110.40,-1.60"/>
    </edge>
    <edge id=":gneJ6_3" function="internal">
        <lane id=":gneJ6_3_0" index="0" speed="6.51" length="9.03" shape="110.40,4.80 107.95,5.15 106.20,6.20 105.15,7.95 104.80,10.40"/>
    </edge>
    <edge id=":gneJ6_4" function="internal">
        <lane id=":gneJ6_4_0" index="0" speed="13.89" length="20.80" shape="110.40,4.80 89.60,4.80"/>
    </edge>
    <edge id=":gneJ6_5" function="internal">
        <lane id=":gneJ6_5_0" index="0" speed="9.26" length="19.35" shape="110.40,1.60 105.15,0.85 101.40,-1.40 99.15,-5.15 98.40,-10.40"/>
    </edge>
    <edge id=":gneJ6_6" function="internal">
        <lane id=":gneJ6_6_0" index="0" speed="6.51" length="9.03" shape="104.80,-10.40 105.15,-7.95 106.20,-6.20 107.95,-5.15 110.40,-4.80"/>
    </edge>
    <edge id=":gneJ6_7" function="internal">
        <lane id=":gneJ6_7_0" index="0" speed="13.89" length="20.80" shape="104.80,-10.40 104.80,10.40"/>
    </edge>
    <edge id=":gneJ6_8" function="internal">
        <lane id=":gneJ6_8_0" index="0" speed="9.26" length="19.35" shape="101.60,-10.40 100.85,-5.15 98.60,-1.40 94.85,0.85 89.60,1.60"/>
    </edge>
    <edge id=":gneJ6_9" function="internal">
        <lane id=":gneJ6_9_0" index="0" speed="6.51" length="9.03" shape="89.60,-4.80 92.05,-5.15 93.80,-6.20 94.85,-7.95 95.20,-10.40"/>
    </edge>
    <edge id=":gneJ6_10" function="internal">
        <lane id=":gneJ6_10_0" index="0" speed="13.89" length="20.80" shape="89.60,-4.80 110.40,-4.80"/>
    </edge>
    <edge id=":gneJ6_11" function="internal">
        <lane id=":gneJ6_11_0" index="0" speed="9.26" length="19.35" shape="89.60,-1.60 94.85,-0.85 98.60,1.40 100.85,5.15 101.60,10.40"/>
    </edge>

    <edge id="EW0" from="gneJ9" to="gneJ6" priority="-1">
        <lane id="EW0_0" index="0" speed="13.89" length="89.60" shape="0.00,-4.80 89.60,-4.80"/>
        <lane id="EW0_1" index="1" speed="13.89" length="89.60" shape="0.00,-1.60 89.60,-1.60"/>
    </edge>
    <edge id="EW1" from="gneJ6" to="gneJ8" priority="-1">
        <lane id="EW1_0" index="0" speed="13.89" length="89.60" shape="110.40,-4.80 200.00,-4.80"/>
        <lane id="EW1_1" index="1" speed="13.89" length="89.60" shape="110.40,-1.60 200.00,-1.60"/>
    </edge>
    <edge id="NS0" from="gneJ5" to="gneJ6" priority="-1">
        <lane id="NS0_0" index="0" speed="13.89" length="89.60" shape="95.20,100.00 95.20,10.40"/>
        <lane id="NS0_1" index="1" speed="13.89" length="89.60" shape="98.40,100.00 98.40,10.40"/>
    </edge>
    <edge id="NS1" from="gneJ6" to="gneJ7" priority="-1" spreadType="roadCenter">
        <lane id="NS1_0" index="0" speed="13.89" length="89.60" shape="95.20,-10.40 95.20,-100.00"/>
        <lane id="NS1_1" index="1" speed="13.89" length="89.60" shape="98.40,-10.40 98.40,-100.00"/>
    </edge>
    <edge id="SN0" from="gneJ7" to="gneJ6" priority="-1">
        <lane id="SN0_0" index="0" speed="13.89" length="89.60" shape="104.80,-100.00 104.80,-10.40"/>
        <lane id="SN0_1" index="1" speed="13.89" length="89.60" shape="101.60,-100.00 101.60,-10.40"/>
    </edge>
    <edge id="SN1" from="gneJ6" to="gneJ5" priority="-1">
        <lane id="SN1_0" index="0" speed="13.89" length="89.60" shape="104.80,10.40 104.80,100.00"/>
        <lane id="SN1_1" index="1" speed="13.89" length="89.60" shape="101.60,10.40 101.60,100.00"/>
    </edge>
    <edge id="WE0" from="gneJ8" to="gneJ6" priority="-1">
        <lane id="WE0_0" index="0" speed="13.89" length="89.60" shape="200.00,4.80 110.40,4.80"/>
        <lane id="WE0_1" index="1" speed="13.89" length="89.60" shape="200.00,1.60 110.40,1.60"/>
    </edge>
    <edge id="WE1" from="gneJ6" to="gneJ9" priority="-1">
        <lane id="WE1_0" index="0" speed="13.89" length="89.60" shape="89.60,4.80 0.00,4.80"/>
        <lane id="WE1_1" index="1" speed="13.89" length="89.60" shape="89.60,1.60 0.00,1.60"/>
    </edge>

    <tlLogic id="gneJ6" type="static" programID="0" offset="0">
        <phase duration="42" state="GGGrrrGGGrrr"/>
        <phase duration="3"  state="yyyrrryyyrrr"/>
        <phase duration="42" state="rrrGGGrrrGGG"/>
        <phase duration="3"  state="rrryyyrrryyy"/>
    </tlLogic>

    <junction id="gneJ5" type="dead_end" x="100.00" y="100.00" incLanes="SN1_0 SN1_1" intLanes="" shape="100.00,100.00 106.40,100.00 100.00,100.00"/>
    <junction id="gneJ6" type="traffic_light" x="100.00" y="0.00" incLanes="NS0_0 NS0_1 WE0_0 WE0_1 SN0_0 SN0_1 EW0_0 EW0_1" intLanes=":gneJ6_0_0 :gneJ6_1_0 :gneJ6_2_0 :gneJ6_3_0 :gneJ6_4_0 :gneJ6_5_0 :gneJ6_6_0 :gneJ6_7_0 :gneJ6_8_0 :gneJ6_9_0 :gneJ6_10_0 :gneJ6_11_0" shape="93.60,10.40 106.40,10.40 106.84,8.18 107.40,7.40 108.18,6.84 109.18,6.51 110.40,6.40 110.40,-6.40 108.18,-6.84 107.40,-7.40 106.84,-8.18 106.51,-9.18 106.40,-10.40 93.60,-10.40 93.16,-8.18 92.60,-7.40 91.82,-6.84 90.82,-6.51 89.60,-6.40 89.60,6.40 91.82,6.84 92.60,7.40 93.16,8.18 93.49,9.18">
        <request index="0"  response="000000000000" foes="000000010000" cont="0"/>
        <request index="1"  response="000000000000" foes="111100010000" cont="0"/>
        <request index="2"  response="000010000000" foes="100010110000" cont="0"/>
        <request index="3"  response="000010000000" foes="000010000000" cont="0"/>
        <request index="4"  response="000010000111" foes="100010000111" cont="0"/>
        <request index="5"  response="010110000100" foes="010110000100" cont="0"/>
        <request index="6"  response="000000000000" foes="010000000000" cont="0"/>
        <request index="7"  response="000000000000" foes="010000111100" cont="0"/>
        <request index="8"  response="000000000010" foes="110000100010" cont="0"/>
        <request index="9"  response="000000000010" foes="000000000010" cont="0"/>
        <request index="10" response="000111000010" foes="000111100010" cont="0"/>
        <request index="11" response="000100010110" foes="000100010110" cont="0"/>
    </junction>
    <junction id="gneJ7" type="dead_end" x="100.00" y="-100.00" incLanes="NS1_0 NS1_1" intLanes="" shape="100.00,-100.00 93.60,-100.00 100.00,-100.00"/>
    <junction id="gneJ8" type="dead_end" x="200.00" y="0.00" incLanes="EW1_0 EW1_1" intLanes="" shape="200.00,0.00 200.00,-6.40 200.00,0.00"/>
    <junction id="gneJ9" type="dead_end" x="0.00" y="0.00" incLanes="WE1_0 WE1_1" intLanes="" shape="0.00,0.00 0.00,6.40 0.00,0.00"/>

    <connection from="EW0" to="NS1" fromLane="0" toLane="0" via=":gneJ6_9_0" tl="gneJ6" linkIndex="9" dir="r" state="o"/>
    <connection from="EW0" to="EW1" fromLane="0" toLane="0" via=":gneJ6_10_0" tl="gneJ6" linkIndex="10" dir="s" state="o"/>
    <connection from="EW0" to="SN1" fromLane="1" toLane="1" via=":gneJ6_11_0" tl="gneJ6" linkIndex="11" dir="l" state="o"/>
    <connection from="NS0" to="WE1" fromLane="0" toLane="0" via=":gneJ6_0_0" tl="gneJ6" linkIndex="0" dir="r" state="O"/>
    <connection from="NS0" to="NS1" fromLane="0" toLane="0" via=":gneJ6_1_0" tl="gneJ6" linkIndex="1" dir="s" state="O"/>
    <connection from="NS0" to="EW1" fromLane="1" toLane="1" via=":gneJ6_2_0" tl="gneJ6" linkIndex="2" dir="l" state="o"/>
    <connection from="SN0" to="EW1" fromLane="0" toLane="0" via=":gneJ6_6_0" tl="gneJ6" linkIndex="6" dir="r" state="O"/>
    <connection from="SN0" to="SN1" fromLane="0" toLane="0" via=":gneJ6_7_0" tl="gneJ6" linkIndex="7" dir="s" state="O"/>
    <connection from="SN0" to="WE1" fromLane="1" toLane="1" via=":gneJ6_8_0" tl="gneJ6" linkIndex="8" dir="l" state="o"/>
    <connection from="WE0" to="SN1" fromLane="0" toLane="0" via=":gneJ6_3_0" tl="gneJ6" linkIndex="3" dir="r" state="o"/>
    <connection from="WE0" to="WE1" fromLane="0" toLane="0" via=":gneJ6_4_0" tl="gneJ6" linkIndex="4" dir="s" state="o"/>
    <connection from="WE0" to="NS1" fromLane="1" toLane="1" via=":gneJ6_5_0" tl="gneJ6" linkIndex="5" dir="l" state="o"/>

    <connection from=":gneJ6_0" to="WE1" fromLane="0" toLane="0" dir="r" state="M"/>
    <connection from=":gneJ6_1" to="NS1" fromLane="0" toLane="0" dir="s" state="M"/>
    <connection from=":gneJ6_2" to="EW1" fromLane="0" toLane="1" dir="l" state="M"/>
    <connection from=":gneJ6_3" to="SN1" fromLane="0" toLane="0" dir="r" state="M"/>
    <connection from=":gneJ6_4" to="WE1" fromLane="0" toLane="0" dir="s" state="M"/>
    <connection from=":gneJ6_5" to="NS1" fromLane="0" toLane="1" dir="l" state="M"/>
    <connection from=":gneJ6_6" to="EW1" fromLane="0" toLane="0" dir="r" state="M"/>
    <connection from=":gneJ6_7" to="SN1" fromLane="0" toLane="0" dir="s" state="M"/>
    <connection from=":gneJ6_8" to="WE1" fromLane="0" toLane="1" dir="l" state="M"/>
    <connection from=":gneJ6_9" to="NS1" fromLane="0" toLane="0" dir="r" state="M"/>
    <connection from=":gneJ6_10" to="EW1" fromLane="0" toLane="0" dir="s" state="M"/>
    <connection from=":gneJ6_11" to="SN1" fromLane="0" toLane="1" dir="l" state="M"/>

</net>
