<routes>
            <vType accel="1.0" decel="4.5" id="standard_car" length="5.0" minGap="2.5" maxSpeed="25" sigma="0.5" />

            <route id="E_N_01" edges="East2TrafficLight_01 TrafficLight2North_01"/>
            <route id="E_S_01" edges="East2TrafficLight_01 TrafficLight2South_01"/>
            <route id="E_W_N_01" edges="East2TrafficLight_01 East2TrafficLight_02 TrafficLight2North_02"/>
            <route id="E_W_S_01" edges="East2TrafficLight_01 East2TrafficLight_02 TrafficLight2South_02"/>
            <route id="E_W_W_01" edges="East2TrafficLight_01 East2TrafficLight_02 TrafficLight2West_02"/>

            <route id="S_N_01" edges="South2TrafficLight_01 TrafficLight2North_01"/>
            <route id="S_E_01" edges="South2TrafficLight_01 TrafficLight2East_01"/>
            <route id="S_W_N_01" edges="South2TrafficLight_01 East2TrafficLight_02 TrafficLight2North_02"/>
            <route id="S_W_S_01" edges="South2TrafficLight_01 East2TrafficLight_02 TrafficLight2South_02"/>
            <route id="S_W_W_01" edges="South2TrafficLight_01 East2TrafficLight_02 TrafficLight2West_02"/>

            <route id="N_E_01" edges="North2TrafficLight_01 TrafficLight2East_01"/>
            <route id="N_S_01" edges="North2TrafficLight_01 TrafficLight2South_01"/>
            <route id="N_W_N_01" edges="North2TrafficLight_01 East2TrafficLight_02 TrafficLight2North_02"/>
            <route id="N_W_S_01" edges="North2TrafficLight_01 East2TrafficLight_02 TrafficLight2South_02"/>
            <route id="N_W_W_01" edges="North2TrafficLight_01 East2TrafficLight_02 TrafficLight2West_02"/>


            <route id="W_N_02" edges="West2TrafficLight_02 TrafficLight2North_02"/>
            <route id="W_S_02" edges="West2TrafficLight_02 TrafficLight2South_02"/>
            <route id="W_E_N_02" edges="West2TrafficLight_02 West2TrafficLight_01 TrafficLight2North_01"/>
            <route id="W_E_S_02" edges="West2TrafficLight_02 West2TrafficLight_01 TrafficLight2South_01"/>
            <route id="W_E_E_02" edges="West2TrafficLight_02 West2TrafficLight_01 TrafficLight2East_01"/>

            <route id="S_W_02" edges="South2TrafficLight_02 TrafficLight2West_02"/>
            <route id="S_N_02" edges="South2TrafficLight_02 TrafficLight2North_02"/>
            <route id="S_E_N_02" edges="South2TrafficLight_02 West2TrafficLight_01 TrafficLight2North_01"/>
            <route id="S_E_S_02" edges="South2TrafficLight_02 West2TrafficLight_01 TrafficLight2South_01"/>
            <route id="S_E_E_02" edges="South2TrafficLight_02 West2TrafficLight_01 TrafficLight2East_01"/>

            <route id="N_W_02" edges="North2TrafficLight_02 TrafficLight2West_02"/>
            <route id="N_S_02" edges="North2TrafficLight_02 TrafficLight2South_02"/>
            <route id="N_E_N_02" edges="North2TrafficLight_02 West2TrafficLight_01 TrafficLight2North_01"/>
            <route id="N_E_S_02" edges="North2TrafficLight_02 West2TrafficLight_01 TrafficLight2South_01"/>
            <route id="N_E_E_02" edges="North2TrafficLight_02 West2TrafficLight_01 TrafficLight2East_01"/>

            
    <vehicle id="E_W_W_01_0" type="standard_car" route="E_W_W_01" depart="66.0" departLane="random" departSpeed="10" />
    <vehicle id="W_E_E_02_1" type="standard_car" route="W_E_E_02" depart="66.0" departLane="random" departSpeed="10" />
    <vehicle id="W_E_E_02_2" type="standard_car" route="W_E_E_02" depart="78.0" departLane="random" departSpeed="10" />
    <vehicle id="N_S_01_3" type="standard_car" route="N_S_01" depart="87.0" departLane="random" departSpeed="10" />
    <vehicle id="W_E_E_02_4" type="standard_car" route="W_E_E_02" depart="89.0" departLane="random" departSpeed="10" />
    <vehicle id="E_W_W_01_5" type="standard_car" route="E_W_W_01" depart="119.0" departLane="random" departSpeed="10" />
    <vehicle id="E_W_W_01_6" type="standard_car" route="E_W_W_01" depart="123.0" departLane="random" departSpeed="10" />
    <vehicle id="N_E_S_02_7" type="standard_car" route="N_E_S_02" depart="124.0" departLane="random" departSpeed="10" />
    <vehicle id="W_N_02_8" type="standard_car" route="W_N_02" depart="132.0" departLane="random" departSpeed="10" />
    <vehicle id="W_E_E_02_9" type="standard_car" route="W_E_E_02" depart="142.0" departLane="random" departSpeed="10" />
    <vehicle id="W_E_E_02_10" type="standard_car" route="W_E_E_02" depart="145.0" departLane="random" departSpeed="10" />
    <vehicle id="E_W_W_01_11" type="standard_car" route="E_W_W_01" depart="146.0" departLane="random" departSpeed="10" />
    <vehicle id="E_W_W_01_12" type="standard_car" route="E_W_W_01" depart="170.0" departLane="random" departSpeed="10" />
    <vehicle id="W_E_E_02_13" type="standard_car" route="W_E_E_02" depart="185.0" departLane="random" departSpeed="10" />
    <vehicle id="E_W_W_01_14" type="standard_car" route="E_W_W_01" depart="186.0" departLane="random" departSpeed="10" />
    <vehicle id="S_N_01_15" type="standard_car" route="S_N_01" depart="188.0" departLane="random" departSpeed="10" />
    <vehicle id="E_W_W_01_16" type="standard_car" route="E_W_W_01" depart="189.0" departLane="random" departSpeed="10" />
    <vehicle id="W_E_E_02_17" type="standard_car" route="W_E_E_02" depart="189.0" departLane="random" departSpeed="10" />
    <vehicle id="E_W_W_01_18" type="standard_car" route="E_W_W_01" depart="202.0" departLane="random" departSpeed="10" />
    <vehicle id="S_E_S_02_19" type="standard_car" route="S_E_S_02" depart="212.0" departLane="random" departSpeed="10" />
    <vehicle id="W_E_E_02_20" type="standard_car" route="W_E_E_02" depart="212.0" departLane="random" departSpeed="10" />
    <vehicle id="S_W_W_01_21" type="standard_car" route="S_W_W_01" depart="215.0" departLane="random" departSpeed="10" />
    <vehicle id="W_E_E_02_22" type="standard_car" route="W_E_E_02" depart="219.0" departLane="random" departSpeed="10" />
    <vehicle id="N_W_S_01_23" type="standard_car" route="N_W_S_01" depart="222.0" departLane="random" departSpeed="10" />
    <vehicle id="E_W_W_01_24" type="standard_car" route="E_W_W_01" depart="237.0" departLane="random" departSpeed="10" />
    <vehicle id="E_W_W_01_25" type="standard_car" route="E_W_W_01" depart="243.0" departLane="random" departSpeed="10" />
    <vehicle id="S_N_01_26" type="standard_car" route="S_N_01" depart="243.0" departLane="random" departSpeed="10" />
    <vehicle id="W_E_E_02_27" type="standard_car" route="W_E_E_02" depart="247.0" departLane="random" departSpeed="10" />
    <vehicle id="E_W_W_01_28" type="standard_car" route="E_W_W_01" depart="250.0" departLane="random" departSpeed="10" />
    <vehicle id="N_W_N_01_29" type="standard_car" route="N_W_N_01" depart="265.0" departLane="random" departSpeed="10" />
    <vehicle id="W_E_E_02_30" type="standard_car" route="W_E_E_02" depart="267.0" departLane="random" departSpeed="10" />
    <vehicle id="E_W_W_01_31" type="standard_car" route="E_W_W_01" depart="270.0" departLane="random" departSpeed="10" />
    <vehicle id="W_E_E_02_32" type="standard_car" route="W_E_E_02" depart="270.0" departLane="random" departSpeed="10" />
    <vehicle id="E_W_W_01_33" type="standard_car" route="E_W_W_01" depart="273.0" departLane="random" departSpeed="10" />
    <vehicle id="W_E_E_02_34" type="standard_car" route="W_E_E_02" depart="277.0" departLane="random" departSpeed="10" />
    <vehicle id="W_E_E_02_35" type="standard_car" route="W_E_E_02" depart="289.0" departLane="random" departSpeed="10" />
    <vehicle id="N_E_01_36" type="standard_car" route="N_E_01" depart="290.0" departLane="random" departSpeed="10" />
    <vehicle id="W_E_E_02_37" type="standard_car" route="W_E_E_02" depart="292.0" departLane="random" departSpeed="10" />
    <vehicle id="E_W_W_01_38" type="standard_car" route="E_W_W_01" depart="294.0" departLane="random" departSpeed="10" />
    <vehicle id="E_W_W_01_39" type="standard_car" route="E_W_W_01" depart="303.0" departLane="random" departSpeed="10" />
    <vehicle id="W_E_E_02_40" type="standard_car" route="W_E_E_02" depart="308.0" departLane="random" departSpeed="10" />
    <vehicle id="S_N_01_41" type="standard_car" route="S_N_01" depart="310.0" departLane="random" departSpeed="10" />
    <vehicle id="E_W_W_01_42" type="standard_car" route="E_W_W_01" depart="313.0" departLane="random" departSpeed="10" />
    <vehicle id="E_W_W_01_43" type="standard_car" route="E_W_W_01" depart="318.0" departLane="random" departSpeed="10" />
    <vehicle id="W_E_E_02_44" type="standard_car" route="W_E_E_02" depart="322.0" departLane="random" departSpeed="10" />
    <vehicle id="E_W_W_01_45" type="standard_car" route="E_W_W_01" depart="322.0" departLane="random" departSpeed="10" />
    <vehicle id="E_W_W_01_46" type="standard_car" route="E_W_W_01" depart="339.0" departLane="random" departSpeed="10" />
    <vehicle id="W_E_E_02_47" type="standard_car" route="W_E_E_02" depart="341.0" departLane="random" departSpeed="10" />
    <vehicle id="N_S_01_48" type="standard_car" route="N_S_01" depart="342.0" departLane="random" departSpeed="10" />
    <vehicle id="E_W_W_01_49" type="standard_car" route="E_W_W_01" depart="344.0" departLane="random" departSpeed="10" />
    <vehicle id="E_W_W_01_50" type="standard_car" route="E_W_W_01" depart="344.0" departLane="random" departSpeed="10" />
    <vehicle id="W_E_E_02_51" type="standard_car" route="W_E_E_02" depart="352.0" departLane="random" departSpeed="10" />
    <vehicle id="E_W_W_01_52" type="standard_car" route="E_W_W_01" depart="353.0" departLane="random" departSpeed="10" />
    <vehicle id="W_E_E_02_53" type="standard_car" route="W_E_E_02" depart="356.0" departLane="random" departSpeed="10" />
    <vehicle id="S_W_W_01_54" type="standard_car" route="S_W_W_01" depart="364.0" departLane="random" departSpeed="10" />
    <vehicle id="E_W_W_01_55" type="standard_car" route="E_W_W_01" depart="364.0" departLane="random" departSpeed="10" />
    <vehicle id="W_E_E_02_56" type="standard_car" route="W_E_E_02" depart="367.0" departLane="random" departSpeed="10" />
    <vehicle id="E_W_W_01_57" type="standard_car" route="E_W_W_01" depart="367.0" departLane="random" departSpeed="10" />
    <vehicle id="W_E_E_02_58" type="standard_car" route="W_E_E_02" depart="370.0" departLane="random" departSpeed="10" />
    <vehicle id="W_E_E_02_59" type="standard_car" route="W_E_E_02" depart="373.0" departLane="random" departSpeed="10" />
    <vehicle id="W_E_E_02_60" type="standard_car" route="W_E_E_02" depart="374.0" departLane="random" departSpeed="10" />
    <vehicle id="W_E_E_02_61" type="standard_car" route="W_E_E_02" depart="377.0" departLane="random" departSpeed="10" />
    <vehicle id="W_E_E_02_62" type="standard_car" route="W_E_E_02" depart="381.0" departLane="random" departSpeed="10" />
    <vehicle id="E_W_W_01_63" type="standard_car" route="E_W_W_01" depart="385.0" departLane="random" departSpeed="10" />
    <vehicle id="N_E_N_02_64" type="standard_car" route="N_E_N_02" depart="387.0" departLane="random" departSpeed="10" />
    <vehicle id="W_E_E_02_65" type="standard_car" route="W_E_E_02" depart="393.0" departLane="random" departSpeed="10" />
    <vehicle id="W_E_N_02_66" type="standard_car" route="W_E_N_02" depart="393.0" departLane="random" departSpeed="10" />
    <vehicle id="S_N_01_67" type="standard_car" route="S_N_01" depart="393.0" departLane="random" departSpeed="10" />
    <vehicle id="E_W_N_01_68" type="standard_car" route="E_W_N_01" depart="400.0" departLane="random" departSpeed="10" />
    <vehicle id="W_E_E_02_69" type="standard_car" route="W_E_E_02" depart="402.0" departLane="random" departSpeed="10" />
    <vehicle id="E_W_W_01_70" type="standard_car" route="E_W_W_01" depart="402.0" departLane="random" departSpeed="10" />
    <vehicle id="E_W_W_01_71" type="standard_car" route="E_W_W_01" depart="404.0" departLane="random" departSpeed="10" />
    <vehicle id="E_W_W_01_72" type="standard_car" route="E_W_W_01" depart="406.0" departLane="random" departSpeed="10" />
    <vehicle id="N_S_01_73" type="standard_car" route="N_S_01" depart="411.0" departLane="random" departSpeed="10" />
    <vehicle id="E_W_W_01_74" type="standard_car" route="E_W_W_01" depart="413.0" departLane="random" departSpeed="10" />
    <vehicle id="S_N_01_75" type="standard_car" route="S_N_01" depart="417.0" departLane="random" departSpeed="10" />
    <vehicle id="W_E_E_02_76" type="standard_car" route="W_E_E_02" depart="417.0" departLane="random" departSpeed="10" />
    <vehicle id="E_W_W_01_77" type="standard_car" route="E_W_W_01" depart="417.0" departLane="random" departSpeed="10" />
    <vehicle id="E_W_W_01_78" type="standard_car" route="E_W_W_01" depart="420.0" departLane="random" departSpeed="10" />
    <vehicle id="N_W_W_01_79" type="standard_car" route="N_W_W_01" depart="420.0" departLane="random" departSpeed="10" />
    <vehicle id="E_W_W_01_80" type="standard_car" route="E_W_W_01" depart="420.0" departLane="random" departSpeed="10" />
    <vehicle id="E_W_W_01_81" type="standard_car" route="E_W_W_01" depart="421.0" departLane="random" departSpeed="10" />
    <vehicle id="W_E_E_02_82" type="standard_car" route="W_E_E_02" depart="422.0" departLane="random" departSpeed="10" />
    <vehicle id="E_W_W_01_83" type="standard_car" route="E_W_W_01" depart="424.0" departLane="random" departSpeed="10" />
    <vehicle id="S_N_02_84" type="standard_car" route="S_N_02" depart="433.0" departLane="random" departSpeed="10" />
    <vehicle id="E_W_W_01_85" type="standard_car" route="E_W_W_01" depart="433.0" departLane="random" departSpeed="10" />
    <vehicle id="E_W_W_01_86" type="standard_car" route="E_W_W_01" depart="436.0" departLane="random" departSpeed="10" />
    <vehicle id="W_E_E_02_87" type="standard_car" route="W_E_E_02" depart="437.0" departLane="random" departSpeed="10" />
    <vehicle id="W_E_E_02_88" type="standard_car" route="W_E_E_02" depart="438.0" departLane="random" departSpeed="10" />
    <vehicle id="W_E_E_02_89" type="standard_car" route="W_E_E_02" depart="444.0" departLane="random" departSpeed="10" />
    <vehicle id="N_S_01_90" type="standard_car" route="N_S_01" depart="444.0" departLane="random" departSpeed="10" />
    <vehicle id="W_E_E_02_91" type="standard_car" route="W_E_E_02" depart="444.0" departLane="random" departSpeed="10" />
    <vehicle id="E_W_W_01_92" type="standard_car" route="E_W_W_01" depart="446.0" departLane="random" departSpeed="10" />
    <vehicle id="S_E_S_02_93" type="standard_car" route="S_E_S_02" depart="449.0" departLane="random" departSpeed="10" />
    <vehicle id="E_W_W_01_94" type="standard_car" route="E_W_W_01" depart="450.0" departLane="random" departSpeed="10" />
    <vehicle id="W_E_E_02_95" type="standard_car" route="W_E_E_02" depart="451.0" departLane="random" departSpeed="10" />
    <vehicle id="E_W_W_01_96" type="standard_car" route="E_W_W_01" depart="453.0" departLane="random" departSpeed="10" />
    <vehicle id="W_E_E_02_97" type="standard_car" route="W_E_E_02" depart="455.0" departLane="random" departSpeed="10" />
    <vehicle id="E_S_01_98" type="standard_car" route="E_S_01" depart="456.0" departLane="random" departSpeed="10" />
    <vehicle id="E_W_W_01_99" type="standard_car" route="E_W_W_01" depart="457.0" departLane="random" departSpeed="10" />
    <vehicle id="N_S_01_100" type="standard_car" route="N_S_01" depart="461.0" departLane="random" departSpeed="10" />
    <vehicle id="W_E_E_02_101" type="standard_car" route="W_E_E_02" depart="461.0" departLane="random" departSpeed="10" />
    <vehicle id="E_W_W_01_102" type="standard_car" route="E_W_W_01" depart="464.0" departLane="random" departSpeed="10" />
    <vehicle id="W_E_E_02_103" type="standard_car" route="W_E_E_02" depart="471.0" departLane="random" departSpeed="10" />
    <vehicle id="E_W_W_01_104" type="standard_car" route="E_W_W_01" depart="471.0" departLane="random" departSpeed="10" />
    <vehicle id="W_E_E_02_105" type="standard_car" route="W_E_E_02" depart="472.0" departLane="random" departSpeed="10" />
    <vehicle id="W_E_E_02_106" type="standard_car" route="W_E_E_02" depart="473.0" departLane="random" departSpeed="10" />
    <vehicle id="N_W_N_01_107" type="standard_car" route="N_W_N_01" depart="482.0" departLane="random" departSpeed="10" />
    <vehicle id="S_N_01_108" type="standard_car" route="S_N_01" depart="483.0" departLane="random" departSpeed="10" />
    <vehicle id="W_E_E_02_109" type="standard_car" route="W_E_E_02" depart="485.0" departLane="random" departSpeed="10" />
    <vehicle id="E_W_W_01_110" type="standard_car" route="E_W_W_01" depart="490.0" departLane="random" departSpeed="10" />
    <vehicle id="N_S_02_111" type="standard_car" route="N_S_02" depart="493.0" departLane="random" departSpeed="10" />
    <vehicle id="E_W_W_01_112" type="standard_car" route="E_W_W_01" depart="494.0" departLane="random" departSpeed="10" />
    <vehicle id="E_W_W_01_113" type="standard_car" route="E_W_W_01" depart="496.0" departLane="random" departSpeed="10" />
    <vehicle id="W_E_E_02_114" type="standard_car" route="W_E_E_02" depart="497.0" departLane="random" departSpeed="10" />
    <vehicle id="W_E_E_02_115" type="standard_car" route="W_E_E_02" depart="499.0" departLane="random" departSpeed="10" />
    <vehicle id="E_W_W_01_116" type="standard_car" route="E_W_W_01" depart="501.0" departLane="random" departSpeed="10" />
    <vehicle id="W_S_02_117" type="standard_car" route="W_S_02" depart="502.0" departLane="random" departSpeed="10" />
    <vehicle id="E_W_W_01_118" type="standard_car" route="E_W_W_01" depart="504.0" departLane="random" departSpeed="10" />
    <vehicle id="E_W_W_01_119" type="standard_car" route="E_W_W_01" depart="504.0" departLane="random" departSpeed="10" />
    <vehicle id="W_E_E_02_120" type="standard_car" route="W_E_E_02" depart="505.0" departLane="random" departSpeed="10" />
    <vehicle id="W_E_E_02_121" type="standard_car" route="W_E_E_02" depart="506.0" departLane="random" departSpeed="10" />
    <vehicle id="E_W_W_01_122" type="standard_car" route="E_W_W_01" depart="507.0" departLane="random" departSpeed="10" />
    <vehicle id="S_N_02_123" type="standard_car" route="S_N_02" depart="508.0" departLane="random" departSpeed="10" />
    <vehicle id="S_W_W_01_124" type="standard_car" route="S_W_W_01" depart="509.0" departLane="random" departSpeed="10" />
    <vehicle id="W_E_E_02_125" type="standard_car" route="W_E_E_02" depart="509.0" departLane="random" departSpeed="10" />
    <vehicle id="W_E_E_02_126" type="standard_car" route="W_E_E_02" depart="515.0" departLane="random" departSpeed="10" />
    <vehicle id="E_W_W_01_127" type="standard_car" route="E_W_W_01" depart="519.0" departLane="random" departSpeed="10" />
    <vehicle id="W_E_E_02_128" type="standard_car" route="W_E_E_02" depart="521.0" departLane="random" departSpeed="10" />
    <vehicle id="S_N_01_129" type="standard_car" route="S_N_01" depart="523.0" departLane="random" departSpeed="10" />
    <vehicle id="W_E_E_02_130" type="standard_car" route="W_E_E_02" depart="523.0" departLane="random" departSpeed="10" />
    <vehicle id="E_W_W_01_131" type="standard_car" route="E_W_W_01" depart="523.0" departLane="random" departSpeed="10" />
    <vehicle id="N_S_01_132" type="standard_car" route="N_S_01" depart="524.0" departLane="random" departSpeed="10" />
    <vehicle id="W_E_E_02_133" type="standard_car" route="W_E_E_02" depart="527.0" departLane="random" departSpeed="10" />
    <vehicle id="E_W_W_01_134" type="standard_car" route="E_W_W_01" depart="527.0" departLane="random" departSpeed="10" />
    <vehicle id="E_W_W_01_135" type="standard_car" route="E_W_W_01" depart="532.0" departLane="random" departSpeed="10" />
    <vehicle id="E_W_W_01_136" type="standard_car" route="E_W_W_01" depart="536.0" departLane="random" departSpeed="10" />
    <vehicle id="E_S_01_137" type="standard_car" route="E_S_01" depart="540.0" departLane="random" departSpeed="10" />
    <vehicle id="W_E_E_02_138" type="standard_car" route="W_E_E_02" depart="541.0" departLane="random" departSpeed="10" />
    <vehicle id="E_W_W_01_139" type="standard_car" route="E_W_W_01" depart="544.0" departLane="random" departSpeed="10" />
    <vehicle id="E_W_W_01_140" type="standard_car" route="E_W_W_01" depart="548.0" departLane="random" departSpeed="10" />
    <vehicle id="W_E_E_02_141" type="standard_car" route="W_E_E_02" depart="551.0" departLane="random" departSpeed="10" />
    <vehicle id="E_W_W_01_142" type="standard_car" route="E_W_W_01" depart="557.0" departLane="random" departSpeed="10" />
    <vehicle id="W_E_E_02_143" type="standard_car" route="W_E_E_02" depart="559.0" departLane="random" departSpeed="10" />
    <vehicle id="N_S_01_144" type="standard_car" route="N_S_01" depart="561.0" departLane="random" departSpeed="10" />
    <vehicle id="E_W_W_01_145" type="standard_car" route="E_W_W_01" depart="561.0" departLane="random" departSpeed="10" />
    <vehicle id="W_E_E_02_146" type="standard_car" route="W_E_E_02" depart="562.0" departLane="random" departSpeed="10" />
    <vehicle id="S_N_02_147" type="standard_car" route="S_N_02" depart="562.0" departLane="random" departSpeed="10" />
    <vehicle id="W_E_E_02_148" type="standard_car" route="W_E_E_02" depart="565.0" departLane="random" departSpeed="10" />
    <vehicle id="W_E_E_02_149" type="standard_car" route="W_E_E_02" depart="567.0" departLane="random" departSpeed="10" />
    <vehicle id="E_W_W_01_150" type="standard_car" route="E_W_W_01" depart="568.0" departLane="random" departSpeed="10" />
    <vehicle id="W_E_E_02_151" type="standard_car" route="W_E_E_02" depart="568.0" departLane="random" departSpeed="10" />
    <vehicle id="W_E_E_02_152" type="standard_car" route="W_E_E_02" depart="568.0" departLane="random" departSpeed="10" />
    <vehicle id="S_E_E_02_153" type="standard_car" route="S_E_E_02" depart="570.0" departLane="random" departSpeed="10" />
    <vehicle id="E_W_W_01_154" type="standard_car" route="E_W_W_01" depart="571.0" departLane="random" departSpeed="10" />
    <vehicle id="W_E_E_02_155" type="standard_car" route="W_E_E_02" depart="577.0" departLane="random" departSpeed="10" />
    <vehicle id="E_W_W_01_156" type="standard_car" route="E_W_W_01" depart="584.0" departLane="random" departSpeed="10" />
    <vehicle id="E_W_W_01_157" type="standard_car" route="E_W_W_01" depart="584.0" departLane="random" departSpeed="10" />
    <vehicle id="W_E_E_02_158" type="standard_car" route="W_E_E_02" depart="590.0" departLane="random" departSpeed="10" />
    <vehicle id="W_E_E_02_159" type="standard_car" route="W_E_E_02" depart="592.0" departLane="random" departSpeed="10" />
    <vehicle id="W_N_02_160" type="standard_car" route="W_N_02" depart="593.0" departLane="random" departSpeed="10" />
    <vehicle id="N_S_01_161" type="standard_car" route="N_S_01" depart="593.0" departLane="random" departSpeed="10" />
    <vehicle id="W_E_E_02_162" type="standard_car" route="W_E_E_02" depart="594.0" departLane="random" departSpeed="10" />
    <vehicle id="E_W_W_01_163" type="standard_car" route="E_W_W_01" depart="594.0" departLane="random" departSpeed="10" />
    <vehicle id="W_E_E_02_164" type="standard_car" route="W_E_E_02" depart="596.0" departLane="random" departSpeed="10" />
    <vehicle id="W_E_E_02_165" type="standard_car" route="W_E_E_02" depart="596.0" departLane="random" departSpeed="10" />
    <vehicle id="E_W_W_01_166" type="standard_car" route="E_W_W_01" depart="599.0" departLane="random" departSpeed="10" />
    <vehicle id="E_W_W_01_167" type="standard_car" route="E_W_W_01" depart="599.0" departLane="random" departSpeed="10" />
    <vehicle id="W_E_E_02_168" type="standard_car" route="W_E_E_02" depart="602.0" departLane="random" departSpeed="10" />
    <vehicle id="N_W_N_01_169" type="standard_car" route="N_W_N_01" depart="606.0" departLane="random" departSpeed="10" />
    <vehicle id="E_W_W_01_170" type="standard_car" route="E_W_W_01" depart="608.0" departLane="random" departSpeed="10" />
    <vehicle id="E_W_W_01_171" type="standard_car" route="E_W_W_01" depart="609.0" departLane="random" departSpeed="10" />
    <vehicle id="W_E_S_02_172" type="standard_car" route="W_E_S_02" depart="612.0" departLane="random" departSpeed="10" />
    <vehicle id="N_S_02_173" type="standard_car" route="N_S_02" depart="614.0" departLane="random" departSpeed="10" />
    <vehicle id="W_E_E_02_174" type="standard_car" route="W_E_E_02" depart="614.0" departLane="random" departSpeed="10" />
    <vehicle id="W_E_E_02_175" type="standard_car" route="W_E_E_02" depart="618.0" departLane="random" departSpeed="10" />
    <vehicle id="W_E_E_02_176" type="standard_car" route="W_E_E_02" depart="622.0" departLane="random" departSpeed="10" />
    <vehicle id="E_W_W_01_177" type="standard_car" route="E_W_W_01" depart="623.0" departLane="random" departSpeed="10" />
    <vehicle id="W_E_E_02_178" type="standard_car" route="W_E_E_02" depart="625.0" departLane="random" departSpeed="10" />
    <vehicle id="W_E_E_02_179" type="standard_car" route="W_E_E_02" depart="630.0" departLane="random" departSpeed="10" />
    <vehicle id="S_N_02_180" type="standard_car" route="S_N_02" depart="630.0" departLane="random" departSpeed="10" />
    <vehicle id="N_S_01_181" type="standard_car" route="N_S_01" depart="631.0" departLane="random" departSpeed="10" />
    <vehicle id="E_W_W_01_182" type="standard_car" route="E_W_W_01" depart="632.0" departLane="random" departSpeed="10" />
    <vehicle id="E_W_W_01_183" type="standard_car" route="E_W_W_01" depart="632.0" departLane="random" departSpeed="10" />
    <vehicle id="E_W_W_01_184" type="standard_car" route="E_W_W_01" depart="634.0" departLane="random" departSpeed="10" />
    <vehicle id="W_E_E_02_185" type="standard_car" route="W_E_E_02" depart="635.0" departLane="random" departSpeed="10" />
    <vehicle id="W_E_E_02_186" type="standard_car" route="W_E_E_02" depart="636.0" departLane="random" departSpeed="10" />
    <vehicle id="W_E_E_02_187" type="standard_car" route="W_E_E_02" depart="640.0" departLane="random" departSpeed="10" />
    <vehicle id="W_S_02_188" type="standard_car" route="W_S_02" depart="643.0" departLane="random" departSpeed="10" />
    <vehicle id="W_E_E_02_189" type="standard_car" route="W_E_E_02" depart="645.0" departLane="random" departSpeed="10" />
    <vehicle id="S_N_01_190" type="standard_car" route="S_N_01" depart="645.0" departLane="random" departSpeed="10" />
    <vehicle id="E_W_W_01_191" type="standard_car" route="E_W_W_01" depart="645.0" departLane="random" departSpeed="10" />
    <vehicle id="E_W_W_01_192" type="standard_car" route="E_W_W_01" depart="646.0" departLane="random" departSpeed="10" />
    <vehicle id="W_E_E_02_193" type="standard_car" route="W_E_E_02" depart="647.0" departLane="random" departSpeed="10" />
    <vehicle id="S_E_N_02_194" type="standard_car" route="S_E_N_02" depart="650.0" departLane="random" departSpeed="10" />
    <vehicle id="W_E_N_02_195" type="standard_car" route="W_E_N_02" depart="653.0" departLane="random" departSpeed="10" />
    <vehicle id="W_E_E_02_196" type="standard_car" route="W_E_E_02" depart="653.0" departLane="random" departSpeed="10" />
    <vehicle id="N_S_02_197" type="standard_car" route="N_S_02" depart="654.0" departLane="random" departSpeed="10" />
    <vehicle id="E_W_W_01_198" type="standard_car" route="E_W_W_01" depart="654.0" departLane="random" departSpeed="10" />
    <vehicle id="W_E_E_02_199" type="standard_car" route="W_E_E_02" depart="661.0" departLane="random" departSpeed="10" />
    <vehicle id="E_W_W_01_200" type="standard_car" route="E_W_W_01" depart="663.0" departLane="random" departSpeed="10" />
    <vehicle id="E_S_01_201" type="standard_car" route="E_S_01" depart="663.0" departLane="random" departSpeed="10" />
    <vehicle id="S_N_02_202" type="standard_car" route="S_N_02" depart="664.0" departLane="random" departSpeed="10" />
    <vehicle id="E_W_W_01_203" type="standard_car" route="E_W_W_01" depart="664.0" departLane="random" departSpeed="10" />
    <vehicle id="E_W_W_01_204" type="standard_car" route="E_W_W_01" depart="669.0" departLane="random" departSpeed="10" />
    <vehicle id="E_W_W_01_205" type="standard_car" route="E_W_W_01" depart="669.0" departLane="random" departSpeed="10" />
    <vehicle id="E_W_W_01_206" type="standard_car" route="E_W_W_01" depart="670.0" departLane="random" departSpeed="10" />
    <vehicle id="E_W_W_01_207" type="standard_car" route="E_W_W_01" depart="672.0" departLane="random" departSpeed="10" />
    <vehicle id="E_W_W_01_208" type="standard_car" route="E_W_W_01" depart="672.0" departLane="random" departSpeed="10" />
    <vehicle id="E_W_W_01_209" type="standard_car" route="E_W_W_01" depart="673.0" departLane="random" departSpeed="10" />
    <vehicle id="W_E_E_02_210" type="standard_car" route="W_E_E_02" depart="678.0" departLane="random" departSpeed="10" />
    <vehicle id="E_W_W_01_211" type="standard_car" route="E_W_W_01" depart="679.0" departLane="random" departSpeed="10" />
    <vehicle id="W_E_E_02_212" type="standard_car" route="W_E_E_02" depart="683.0" departLane="random" departSpeed="10" />
    <vehicle id="S_N_01_213" type="standard_car" route="S_N_01" depart="685.0" departLane="random" departSpeed="10" />
    <vehicle id="N_E_01_214" type="standard_car" route="N_E_01" depart="685.0" departLane="random" departSpeed="10" />
    <vehicle id="S_W_02_215" type="standard_car" route="S_W_02" depart="685.0" departLane="random" departSpeed="10" />
    <vehicle id="N_S_01_216" type="standard_car" route="N_S_01" depart="686.0" departLane="random" departSpeed="10" />
    <vehicle id="S_E_01_217" type="standard_car" route="S_E_01" depart="686.0" departLane="random" departSpeed="10" />
    <vehicle id="E_W_W_01_218" type="standard_car" route="E_W_W_01" depart="690.0" departLane="random" departSpeed="10" />
    <vehicle id="S_E_S_02_219" type="standard_car" route="S_E_S_02" depart="693.0" departLane="random" departSpeed="10" />