<?xml version="1.0" encoding="UTF-8"?>

<!-- generated on ven 04 dic 2020 15:58:29 CET by Eclipse SUMO GUI Version 1.7.0
-->

<configuration xmlns:xsi="http://www.w3.org/2001/XMLSchema-instance" xsi:noNamespaceSchemaLocation="http://sumo.dlr.de/xsd/sumoConfiguration.xsd">

    <input>
        <net-file value="doppio_incrocio.net.xml"/>
        <route-files value="routes.rou.xml"/>
    </input>

</configuration>
