<?xml version="1.0" encoding="UTF-8"?>

<!-- generated on mar 01 set 2020 17:15:16 CEST by Eclipse SUMO GUI Version 1.6.0
-->

<configuration xmlns:xsi="http://www.w3.org/2001/XMLSchema-instance" xsi:noNamespaceSchemaLocation="http://sumo.dlr.de/xsd/sumoConfiguration.xsd">

    <input>
        <net-file value="incrocio_3_corsie.net.xml"/>
        <route-files value="routes.rou.xml"/>
    </input>

</configuration>
