<routes>
            <vType accel="1.0" decel="4.5" id="standard_car" length="5.0" minGap="2.5" maxSpeed="25" sigma="0.5" />

            <route id="W_N" edges="WE2TrafficLight TrafficLight2North"/>
            <route id="W_E" edges="WE2TrafficLight TrafficLight2East"/>
            <route id="W_S" edges="WE2TrafficLight TrafficLight2South"/>
            <route id="N_W" edges="North2TrafficLight TrafficLight2West"/>
            <route id="N_E" edges="North2TrafficLight TrafficLight2East"/>
            <route id="N_S" edges="North2TrafficLight TrafficLight2South"/>
            <route id="E_W" edges="East2TrafficLight TrafficLight2West"/>
            <route id="E_N" edges="East2TrafficLight TrafficLight2North"/>
            <route id="E_S" edges="East2TrafficLight TrafficLight2South"/>
            <route id="S_W" edges="South2TrafficLight TrafficLight2West"/>
            <route id="S_N" edges="South2TrafficLight TrafficLight2North"/>
            <route id="S_E" edges="South2TrafficLight TrafficLight2East"/>
    <vehicle id="S_W_0" type="standard_car" route="S_W" depart="38.0" departLane="random" departSpeed="10" />
    <vehicle id="S_N_1" type="standard_car" route="S_N" depart="65.0" departLane="random" departSpeed="10" />
    <vehicle id="W_S_2" type="standard_car" route="W_S" depart="75.0" departLane="random" departSpeed="10" />
    <vehicle id="S_N_3" type="standard_car" route="S_N" depart="85.0" departLane="random" departSpeed="10" />
    <vehicle id="S_N_4" type="standard_car" route="S_N" depart="91.0" departLane="random" departSpeed="10" />
    <vehicle id="S_N_5" type="standard_car" route="S_N" depart="94.0" departLane="random" departSpeed="10" />
    <vehicle id="N_S_6" type="standard_car" route="N_S" depart="103.0" departLane="random" departSpeed="10" />
    <vehicle id="N_S_7" type="standard_car" route="N_S" depart="148.0" departLane="random" departSpeed="10" />
    <vehicle id="E_W_8" type="standard_car" route="E_W" depart="153.0" departLane="random" departSpeed="10" />
    <vehicle id="E_N_9" type="standard_car" route="E_N" depart="156.0" departLane="random" departSpeed="10" />
    <vehicle id="N_S_10" type="standard_car" route="N_S" depart="159.0" departLane="random" departSpeed="10" />
    <vehicle id="N_S_11" type="standard_car" route="N_S" depart="169.0" departLane="random" departSpeed="10" />
    <vehicle id="S_N_12" type="standard_car" route="S_N" depart="176.0" departLane="random" departSpeed="10" />
    <vehicle id="E_W_13" type="standard_car" route="E_W" depart="185.0" departLane="random" departSpeed="10" />
    <vehicle id="W_E_14" type="standard_car" route="W_E" depart="190.0" departLane="random" departSpeed="10" />
    <vehicle id="S_N_15" type="standard_car" route="S_N" depart="190.0" departLane="random" departSpeed="10" />
    <vehicle id="N_W_16" type="standard_car" route="N_W" depart="200.0" departLane="random" departSpeed="10" />
    <vehicle id="W_E_17" type="standard_car" route="W_E" depart="201.0" departLane="random" departSpeed="10" />
    <vehicle id="W_E_18" type="standard_car" route="W_E" depart="204.0" departLane="random" departSpeed="10" />
    <vehicle id="E_W_19" type="standard_car" route="E_W" depart="210.0" departLane="random" departSpeed="10" />
    <vehicle id="N_S_20" type="standard_car" route="N_S" depart="214.0" departLane="random" departSpeed="10" />
    <vehicle id="N_W_21" type="standard_car" route="N_W" depart="219.0" departLane="random" departSpeed="10" />
    <vehicle id="N_S_22" type="standard_car" route="N_S" depart="221.0" departLane="random" departSpeed="10" />
    <vehicle id="N_W_23" type="standard_car" route="N_W" depart="223.0" departLane="random" departSpeed="10" />
    <vehicle id="W_E_24" type="standard_car" route="W_E" depart="231.0" departLane="random" departSpeed="10" />
    <vehicle id="W_E_25" type="standard_car" route="W_E" depart="232.0" departLane="random" departSpeed="10" />
    <vehicle id="S_E_26" type="standard_car" route="S_E" depart="233.0" departLane="random" departSpeed="10" />
    <vehicle id="E_S_27" type="standard_car" route="E_S" depart="234.0" departLane="random" departSpeed="10" />
    <vehicle id="S_W_28" type="standard_car" route="S_W" depart="239.0" departLane="random" departSpeed="10" />
    <vehicle id="W_S_29" type="standard_car" route="W_S" depart="243.0" departLane="random" departSpeed="10" />
    <vehicle id="S_W_30" type="standard_car" route="S_W" depart="248.0" departLane="random" departSpeed="10" />
    <vehicle id="W_S_31" type="standard_car" route="W_S" depart="252.0" departLane="random" departSpeed="10" />
    <vehicle id="N_W_32" type="standard_car" route="N_W" depart="256.0" departLane="random" departSpeed="10" />
    <vehicle id="E_W_33" type="standard_car" route="E_W" depart="261.0" departLane="random" departSpeed="10" />
    <vehicle id="W_E_34" type="standard_car" route="W_E" depart="268.0" departLane="random" departSpeed="10" />
    <vehicle id="W_E_35" type="standard_car" route="W_E" depart="272.0" departLane="random" departSpeed="10" />
    <vehicle id="E_S_36" type="standard_car" route="E_S" depart="273.0" departLane="random" departSpeed="10" />
    <vehicle id="E_S_37" type="standard_car" route="E_S" depart="278.0" departLane="random" departSpeed="10" />
    <vehicle id="W_E_38" type="standard_car" route="W_E" depart="282.0" departLane="random" departSpeed="10" />
    <vehicle id="S_N_39" type="standard_car" route="S_N" depart="288.0" departLane="random" departSpeed="10" />
    <vehicle id="S_N_40" type="standard_car" route="S_N" depart="305.0" departLane="random" departSpeed="10" />
    <vehicle id="E_W_41" type="standard_car" route="E_W" depart="309.0" departLane="random" departSpeed="10" />
    <vehicle id="N_S_42" type="standard_car" route="N_S" depart="310.0" departLane="random" departSpeed="10" />
    <vehicle id="N_S_43" type="standard_car" route="N_S" depart="311.0" departLane="random" departSpeed="10" />
    <vehicle id="W_E_44" type="standard_car" route="W_E" depart="312.0" departLane="random" departSpeed="10" />
    <vehicle id="W_S_45" type="standard_car" route="W_S" depart="320.0" departLane="random" departSpeed="10" />
    <vehicle id="S_N_46" type="standard_car" route="S_N" depart="321.0" departLane="random" departSpeed="10" />
    <vehicle id="W_N_47" type="standard_car" route="W_N" depart="323.0" departLane="random" departSpeed="10" />
    <vehicle id="S_E_48" type="standard_car" route="S_E" depart="323.0" departLane="random" departSpeed="10" />
    <vehicle id="S_N_49" type="standard_car" route="S_N" depart="327.0" departLane="random" departSpeed="10" />
    <vehicle id="N_S_50" type="standard_car" route="N_S" depart="331.0" departLane="random" departSpeed="10" />
    <vehicle id="N_S_51" type="standard_car" route="N_S" depart="333.0" departLane="random" departSpeed="10" />
    <vehicle id="S_N_52" type="standard_car" route="S_N" depart="335.0" departLane="random" departSpeed="10" />
    <vehicle id="E_W_53" type="standard_car" route="E_W" depart="336.0" departLane="random" departSpeed="10" />
    <vehicle id="E_S_54" type="standard_car" route="E_S" depart="337.0" departLane="random" departSpeed="10" />
    <vehicle id="W_E_55" type="standard_car" route="W_E" depart="338.0" departLane="random" departSpeed="10" />
    <vehicle id="N_S_56" type="standard_car" route="N_S" depart="341.0" departLane="random" departSpeed="10" />
    <vehicle id="S_E_57" type="standard_car" route="S_E" depart="345.0" departLane="random" departSpeed="10" />
    <vehicle id="W_N_58" type="standard_car" route="W_N" depart="347.0" departLane="random" departSpeed="10" />
    <vehicle id="S_N_59" type="standard_car" route="S_N" depart="351.0" departLane="random" departSpeed="10" />
    <vehicle id="W_E_60" type="standard_car" route="W_E" depart="355.0" departLane="random" departSpeed="10" />
    <vehicle id="S_N_61" type="standard_car" route="S_N" depart="359.0" departLane="random" departSpeed="10" />
    <vehicle id="N_S_62" type="standard_car" route="N_S" depart="364.0" departLane="random" departSpeed="10" />
    <vehicle id="W_E_63" type="standard_car" route="W_E" depart="370.0" departLane="random" departSpeed="10" />
    <vehicle id="E_W_64" type="standard_car" route="E_W" depart="375.0" departLane="random" departSpeed="10" />
    <vehicle id="W_E_65" type="standard_car" route="W_E" depart="377.0" departLane="random" departSpeed="10" />
    <vehicle id="S_N_66" type="standard_car" route="S_N" depart="378.0" departLane="random" departSpeed="10" />
    <vehicle id="S_E_67" type="standard_car" route="S_E" depart="380.0" departLane="random" departSpeed="10" />
    <vehicle id="S_N_68" type="standard_car" route="S_N" depart="381.0" departLane="random" departSpeed="10" />
    <vehicle id="W_E_69" type="standard_car" route="W_E" depart="384.0" departLane="random" departSpeed="10" />
    <vehicle id="E_W_70" type="standard_car" route="E_W" depart="385.0" departLane="random" departSpeed="10" />
    <vehicle id="N_E_71" type="standard_car" route="N_E" depart="397.0" departLane="random" departSpeed="10" />
    <vehicle id="E_W_72" type="standard_car" route="E_W" depart="399.0" departLane="random" departSpeed="10" />
    <vehicle id="W_S_73" type="standard_car" route="W_S" depart="399.0" departLane="random" departSpeed="10" />
    <vehicle id="W_E_74" type="standard_car" route="W_E" depart="399.0" departLane="random" departSpeed="10" />
    <vehicle id="E_W_75" type="standard_car" route="E_W" depart="402.0" departLane="random" departSpeed="10" />
    <vehicle id="S_E_76" type="standard_car" route="S_E" depart="402.0" departLane="random" departSpeed="10" />
    <vehicle id="N_W_77" type="standard_car" route="N_W" depart="402.0" departLane="random" departSpeed="10" />
    <vehicle id="N_W_78" type="standard_car" route="N_W" depart="411.0" departLane="random" departSpeed="10" />
    <vehicle id="E_W_79" type="standard_car" route="E_W" depart="418.0" departLane="random" departSpeed="10" />
    <vehicle id="W_E_80" type="standard_car" route="W_E" depart="418.0" departLane="random" departSpeed="10" />
    <vehicle id="N_E_81" type="standard_car" route="N_E" depart="419.0" departLane="random" departSpeed="10" />
    <vehicle id="W_E_82" type="standard_car" route="W_E" depart="419.0" departLane="random" departSpeed="10" />
    <vehicle id="S_N_83" type="standard_car" route="S_N" depart="423.0" departLane="random" departSpeed="10" />
    <vehicle id="N_W_84" type="standard_car" route="N_W" depart="424.0" departLane="random" departSpeed="10" />
    <vehicle id="N_S_85" type="standard_car" route="N_S" depart="425.0" departLane="random" departSpeed="10" />
    <vehicle id="E_W_86" type="standard_car" route="E_W" depart="425.0" departLane="random" departSpeed="10" />
    <vehicle id="N_S_87" type="standard_car" route="N_S" depart="426.0" departLane="random" departSpeed="10" />
    <vehicle id="E_W_88" type="standard_car" route="E_W" depart="429.0" departLane="random" departSpeed="10" />
    <vehicle id="S_N_89" type="standard_car" route="S_N" depart="430.0" departLane="random" departSpeed="10" />
    <vehicle id="N_S_90" type="standard_car" route="N_S" depart="431.0" departLane="random" departSpeed="10" />
    <vehicle id="W_N_91" type="standard_car" route="W_N" depart="444.0" departLane="random" departSpeed="10" />
    <vehicle id="W_E_92" type="standard_car" route="W_E" depart="446.0" departLane="random" departSpeed="10" />
    <vehicle id="S_N_93" type="standard_car" route="S_N" depart="447.0" departLane="random" departSpeed="10" />
    <vehicle id="W_E_94" type="standard_car" route="W_E" depart="456.0" departLane="random" departSpeed="10" />
    <vehicle id="S_N_95" type="standard_car" route="S_N" depart="462.0" departLane="random" departSpeed="10" />
    <vehicle id="W_S_96" type="standard_car" route="W_S" depart="462.0" departLane="random" departSpeed="10" />
    <vehicle id="N_S_97" type="standard_car" route="N_S" depart="467.0" departLane="random" departSpeed="10" />
    <vehicle id="E_N_98" type="standard_car" route="E_N" depart="469.0" departLane="random" departSpeed="10" />
    <vehicle id="S_N_99" type="standard_car" route="S_N" depart="478.0" departLane="random" departSpeed="10" />
    <vehicle id="S_N_100" type="standard_car" route="S_N" depart="478.0" departLane="random" departSpeed="10" />
    <vehicle id="W_N_101" type="standard_car" route="W_N" depart="479.0" departLane="random" departSpeed="10" />
    <vehicle id="E_N_102" type="standard_car" route="E_N" depart="481.0" departLane="random" departSpeed="10" />
    <vehicle id="W_E_103" type="standard_car" route="W_E" depart="481.0" departLane="random" departSpeed="10" />
    <vehicle id="N_W_104" type="standard_car" route="N_W" depart="488.0" departLane="random" departSpeed="10" />
    <vehicle id="S_N_105" type="standard_car" route="S_N" depart="490.0" departLane="random" departSpeed="10" />
    <vehicle id="N_S_106" type="standard_car" route="N_S" depart="492.0" departLane="random" departSpeed="10" />
    <vehicle id="W_S_107" type="standard_car" route="W_S" depart="494.0" departLane="random" departSpeed="10" />
    <vehicle id="N_S_108" type="standard_car" route="N_S" depart="503.0" departLane="random" departSpeed="10" />
    <vehicle id="W_E_109" type="standard_car" route="W_E" depart="504.0" departLane="random" departSpeed="10" />
    <vehicle id="N_S_110" type="standard_car" route="N_S" depart="504.0" departLane="random" departSpeed="10" />
    <vehicle id="S_N_111" type="standard_car" route="S_N" depart="512.0" departLane="random" departSpeed="10" />
    <vehicle id="W_E_112" type="standard_car" route="W_E" depart="512.0" departLane="random" departSpeed="10" />
    <vehicle id="S_N_113" type="standard_car" route="S_N" depart="515.0" departLane="random" departSpeed="10" />
    <vehicle id="S_N_114" type="standard_car" route="S_N" depart="516.0" departLane="random" departSpeed="10" />
    <vehicle id="N_S_115" type="standard_car" route="N_S" depart="518.0" departLane="random" departSpeed="10" />
    <vehicle id="N_S_116" type="standard_car" route="N_S" depart="519.0" departLane="random" departSpeed="10" />
    <vehicle id="E_W_117" type="standard_car" route="E_W" depart="521.0" departLane="random" departSpeed="10" />
    <vehicle id="S_W_118" type="standard_car" route="S_W" depart="521.0" departLane="random" departSpeed="10" />
    <vehicle id="W_E_119" type="standard_car" route="W_E" depart="526.0" departLane="random" departSpeed="10" />
    <vehicle id="S_N_120" type="standard_car" route="S_N" depart="526.0" departLane="random" departSpeed="10" />
    <vehicle id="N_W_121" type="standard_car" route="N_W" depart="526.0" departLane="random" departSpeed="10" />
    <vehicle id="W_E_122" type="standard_car" route="W_E" depart="530.0" departLane="random" departSpeed="10" />
    <vehicle id="S_N_123" type="standard_car" route="S_N" depart="532.0" departLane="random" departSpeed="10" />
    <vehicle id="W_E_124" type="standard_car" route="W_E" depart="535.0" departLane="random" departSpeed="10" />
    <vehicle id="W_S_125" type="standard_car" route="W_S" depart="538.0" departLane="random" departSpeed="10" />
    <vehicle id="S_N_126" type="standard_car" route="S_N" depart="541.0" departLane="random" departSpeed="10" />
    <vehicle id="W_E_127" type="standard_car" route="W_E" depart="544.0" departLane="random" departSpeed="10" />
    <vehicle id="S_N_128" type="standard_car" route="S_N" depart="547.0" departLane="random" departSpeed="10" />
    <vehicle id="S_N_129" type="standard_car" route="S_N" depart="559.0" departLane="random" departSpeed="10" />
    <vehicle id="S_E_130" type="standard_car" route="S_E" depart="562.0" departLane="random" departSpeed="10" />
    <vehicle id="S_N_131" type="standard_car" route="S_N" depart="563.0" departLane="random" departSpeed="10" />
    <vehicle id="N_S_132" type="standard_car" route="N_S" depart="564.0" departLane="random" departSpeed="10" />
    <vehicle id="S_N_133" type="standard_car" route="S_N" depart="566.0" departLane="random" departSpeed="10" />
    <vehicle id="E_S_134" type="standard_car" route="E_S" depart="567.0" departLane="random" departSpeed="10" />
    <vehicle id="W_E_135" type="standard_car" route="W_E" depart="567.0" departLane="random" departSpeed="10" />
    <vehicle id="E_W_136" type="standard_car" route="E_W" depart="568.0" departLane="random" departSpeed="10" />
    <vehicle id="E_W_137" type="standard_car" route="E_W" depart="568.0" departLane="random" departSpeed="10" />
    <vehicle id="N_S_138" type="standard_car" route="N_S" depart="569.0" departLane="random" departSpeed="10" />
    <vehicle id="E_W_139" type="standard_car" route="E_W" depart="569.0" departLane="random" departSpeed="10" />
    <vehicle id="W_E_140" type="standard_car" route="W_E" depart="570.0" departLane="random" departSpeed="10" />
    <vehicle id="N_S_141" type="standard_car" route="N_S" depart="575.0" departLane="random" departSpeed="10" />
    <vehicle id="S_E_142" type="standard_car" route="S_E" depart="575.0" departLane="random" departSpeed="10" />
    <vehicle id="N_S_143" type="standard_car" route="N_S" depart="575.0" departLane="random" departSpeed="10" />
    <vehicle id="E_S_144" type="standard_car" route="E_S" depart="577.0" departLane="random" departSpeed="10" />
    <vehicle id="W_E_145" type="standard_car" route="W_E" depart="582.0" departLane="random" departSpeed="10" />
    <vehicle id="N_W_146" type="standard_car" route="N_W" depart="583.0" departLane="random" departSpeed="10" />
    <vehicle id="W_E_147" type="standard_car" route="W_E" depart="584.0" departLane="random" departSpeed="10" />
    <vehicle id="N_S_148" type="standard_car" route="N_S" depart="595.0" departLane="random" departSpeed="10" />
    <vehicle id="N_W_149" type="standard_car" route="N_W" depart="596.0" departLane="random" departSpeed="10" />
    <vehicle id="S_N_150" type="standard_car" route="S_N" depart="598.0" departLane="random" departSpeed="10" />
    <vehicle id="S_N_151" type="standard_car" route="S_N" depart="606.0" departLane="random" departSpeed="10" />
    <vehicle id="N_S_152" type="standard_car" route="N_S" depart="608.0" departLane="random" departSpeed="10" />
    <vehicle id="E_W_153" type="standard_car" route="E_W" depart="608.0" departLane="random" departSpeed="10" />
    <vehicle id="N_E_154" type="standard_car" route="N_E" depart="610.0" departLane="random" departSpeed="10" />
    <vehicle id="N_S_155" type="standard_car" route="N_S" depart="614.0" departLane="random" departSpeed="10" />
    <vehicle id="S_N_156" type="standard_car" route="S_N" depart="616.0" departLane="random" departSpeed="10" />
    <vehicle id="S_E_157" type="standard_car" route="S_E" depart="618.0" departLane="random" departSpeed="10" />
    <vehicle id="E_W_158" type="standard_car" route="E_W" depart="622.0" departLane="random" departSpeed="10" />
    <vehicle id="W_N_159" type="standard_car" route="W_N" depart="626.0" departLane="random" departSpeed="10" />
    <vehicle id="S_N_160" type="standard_car" route="S_N" depart="630.0" departLane="random" departSpeed="10" />
    <vehicle id="N_W_161" type="standard_car" route="N_W" depart="630.0" departLane="random" departSpeed="10" />
    <vehicle id="W_E_162" type="standard_car" route="W_E" depart="632.0" departLane="random" departSpeed="10" />
    <vehicle id="E_W_163" type="standard_car" route="E_W" depart="634.0" departLane="random" departSpeed="10" />
    <vehicle id="N_S_164" type="standard_car" route="N_S" depart="641.0" departLane="random" departSpeed="10" />
    <vehicle id="N_S_165" type="standard_car" route="N_S" depart="642.0" departLane="random" departSpeed="10" />
    <vehicle id="N_S_166" type="standard_car" route="N_S" depart="647.0" departLane="random" departSpeed="10" />
    <vehicle id="N_S_167" type="standard_car" route="N_S" depart="648.0" departLane="random" departSpeed="10" />
    <vehicle id="S_N_168" type="standard_car" route="S_N" depart="649.0" departLane="random" departSpeed="10" />
    <vehicle id="S_N_169" type="standard_car" route="S_N" depart="650.0" departLane="random" departSpeed="10" />
    <vehicle id="S_N_170" type="standard_car" route="S_N" depart="656.0" departLane="random" departSpeed="10" />
    <vehicle id="N_S_171" type="standard_car" route="N_S" depart="658.0" departLane="random" departSpeed="10" />
    <vehicle id="S_N_172" type="standard_car" route="S_N" depart="659.0" departLane="random" departSpeed="10" />
    <vehicle id="N_S_173" type="standard_car" route="N_S" depart="660.0" departLane="random" departSpeed="10" />
    <vehicle id="S_N_174" type="standard_car" route="S_N" depart="662.0" departLane="random" departSpeed="10" />
    <vehicle id="E_W_175" type="standard_car" route="E_W" depart="664.0" departLane="random" departSpeed="10" />
    <vehicle id="W_S_176" type="standard_car" route="W_S" depart="665.0" departLane="random" departSpeed="10" />
    <vehicle id="N_S_177" type="standard_car" route="N_S" depart="666.0" departLane="random" departSpeed="10" />
    <vehicle id="E_W_178" type="standard_car" route="E_W" depart="669.0" departLane="random" departSpeed="10" />
    <vehicle id="W_E_179" type="standard_car" route="W_E" depart="669.0" departLane="random" departSpeed="10" />
    <vehicle id="W_E_180" type="standard_car" route="W_E" depart="670.0" departLane="random" departSpeed="10" />
    <vehicle id="N_S_181" type="standard_car" route="N_S" depart="670.0" departLane="random" departSpeed="10" />
    <vehicle id="S_N_182" type="standard_car" route="S_N" depart="675.0" departLane="random" departSpeed="10" />
    <vehicle id="E_W_183" type="standard_car" route="E_W" depart="676.0" departLane="random" departSpeed="10" />
    <vehicle id="N_S_184" type="standard_car" route="N_S" depart="677.0" departLane="random" departSpeed="10" />
    <vehicle id="S_N_185" type="standard_car" route="S_N" depart="678.0" departLane="random" departSpeed="10" />
    <vehicle id="E_W_186" type="standard_car" route="E_W" depart="679.0" departLane="random" departSpeed="10" />
    <vehicle id="E_W_187" type="standard_car" route="E_W" depart="680.0" departLane="random" departSpeed="10" />
    <vehicle id="W_E_188" type="standard_car" route="W_E" depart="681.0" departLane="random" departSpeed="10" />
    <vehicle id="N_S_189" type="standard_car" route="N_S" depart="682.0" departLane="random" departSpeed="10" />
    <vehicle id="W_E_190" type="standard_car" route="W_E" depart="683.0" departLane="random" departSpeed="10" />
    <vehicle id="E_W_191" type="standard_car" route="E_W" depart="685.0" departLane="random" departSpeed="10" />
    <vehicle id="E_W_192" type="standard_car" route="E_W" depart="685.0" departLane="random" departSpeed="10" />
    <vehicle id="W_E_193" type="standard_car" route="W_E" depart="687.0" departLane="random" departSpeed="10" />
    <vehicle id="S_E_194" type="standard_car" route="S_E" depart="690.0" departLane="random" departSpeed="10" />
    <vehicle id="W_E_195" type="standard_car" route="W_E" depart="692.0" departLane="random" departSpeed="10" />
    <vehicle id="W_E_196" type="standard_car" route="W_E" depart="694.0" departLane="random" departSpeed="10" />
    <vehicle id="E_W_197" type="standard_car" route="E_W" depart="699.0" departLane="random" departSpeed="10" />
    <vehicle id="W_N_198" type="standard_car" route="W_N" depart="702.0" departLane="random" departSpeed="10" />
    <vehicle id="E_W_199" type="standard_car" route="E_W" depart="709.0" departLane="random" departSpeed="10" />
    <vehicle id="E_W_200" type="standard_car" route="E_W" depart="713.0" departLane="random" departSpeed="10" />
    <vehicle id="E_W_201" type="standard_car" route="E_W" depart="714.0" departLane="random" departSpeed="10" />
    <vehicle id="N_S_202" type="standard_car" route="N_S" depart="721.0" departLane="random" departSpeed="10" />
    <vehicle id="S_N_203" type="standard_car" route="S_N" depart="728.0" departLane="random" departSpeed="10" />
    <vehicle id="E_S_204" type="standard_car" route="E_S" depart="730.0" departLane="random" departSpeed="10" />
    <vehicle id="S_N_205" type="standard_car" route="S_N" depart="730.0" departLane="random" departSpeed="10" />
    <vehicle id="W_E_206" type="standard_car" route="W_E" depart="732.0" departLane="random" departSpeed="10" />
    <vehicle id="E_S_207" type="standard_car" route="E_S" depart="732.0" departLane="random" departSpeed="10" />
    <vehicle id="W_E_208" type="standard_car" route="W_E" depart="736.0" departLane="random" departSpeed="10" />
    <vehicle id="W_E_209" type="standard_car" route="W_E" depart="738.0" departLane="random" departSpeed="10" />
    <vehicle id="E_W_210" type="standard_car" route="E_W" depart="740.0" departLane="random" departSpeed="10" />
    <vehicle id="N_S_211" type="standard_car" route="N_S" depart="741.0" departLane="random" departSpeed="10" />
    <vehicle id="W_S_212" type="standard_car" route="W_S" depart="743.0" departLane="random" departSpeed="10" />
    <vehicle id="W_E_213" type="standard_car" route="W_E" depart="743.0" departLane="random" departSpeed="10" />
    <vehicle id="E_N_214" type="standard_car" route="E_N" depart="746.0" departLane="random" departSpeed="10" />
    <vehicle id="S_N_215" type="standard_car" route="S_N" depart="746.0" departLane="random" departSpeed="10" />
    <vehicle id="N_S_216" type="standard_car" route="N_S" depart="747.0" departLane="random" departSpeed="10" />
    <vehicle id="S_E_217" type="standard_car" route="S_E" depart="758.0" departLane="random" departSpeed="10" />
    <vehicle id="E_W_218" type="standard_car" route="E_W" depart="760.0" departLane="random" departSpeed="10" />
    <vehicle id="N_W_219" type="standard_car" route="N_W" depart="763.0" departLane="random" departSpeed="10" />
    <vehicle id="W_E_220" type="standard_car" route="W_E" depart="767.0" departLane="random" departSpeed="10" />
    <vehicle id="W_E_221" type="standard_car" route="W_E" depart="771.0" departLane="random" departSpeed="10" />
    <vehicle id="W_E_222" type="standard_car" route="W_E" depart="773.0" departLane="random" departSpeed="10" />
    <vehicle id="W_E_223" type="standard_car" route="W_E" depart="774.0" departLane="random" departSpeed="10" />
    <vehicle id="E_W_224" type="standard_car" route="E_W" depart="776.0" departLane="random" departSpeed="10" />
    <vehicle id="E_W_225" type="standard_car" route="E_W" depart="777.0" departLane="random" departSpeed="10" />
    <vehicle id="E_S_226" type="standard_car" route="E_S" depart="782.0" departLane="random" departSpeed="10" />
    <vehicle id="E_W_227" type="standard_car" route="E_W" depart="783.0" departLane="random" departSpeed="10" />
    <vehicle id="S_N_228" type="standard_car" route="S_N" depart="783.0" departLane="random" departSpeed="10" />
    <vehicle id="E_W_229" type="standard_car" route="E_W" depart="784.0" departLane="random" departSpeed="10" />
    <vehicle id="W_N_230" type="standard_car" route="W_N" depart="785.0" departLane="random" departSpeed="10" />
    <vehicle id="W_E_231" type="standard_car" route="W_E" depart="786.0" departLane="random" departSpeed="10" />
    <vehicle id="N_S_232" type="standard_car" route="N_S" depart="788.0" departLane="random" departSpeed="10" />
    <vehicle id="W_E_233" type="standard_car" route="W_E" depart="789.0" departLane="random" departSpeed="10" />
    <vehicle id="S_W_234" type="standard_car" route="S_W" depart="789.0" departLane="random" departSpeed="10" />
    <vehicle id="S_N_235" type="standard_car" route="S_N" depart="793.0" departLane="random" departSpeed="10" />
    <vehicle id="E_W_236" type="standard_car" route="E_W" depart="794.0" departLane="random" departSpeed="10" />
    <vehicle id="N_S_237" type="standard_car" route="N_S" depart="796.0" departLane="random" departSpeed="10" />
    <vehicle id="N_S_238" type="standard_car" route="N_S" depart="798.0" departLane="random" departSpeed="10" />
    <vehicle id="N_S_239" type="standard_car" route="N_S" depart="799.0" departLane="random" departSpeed="10" />
    <vehicle id="E_W_240" type="standard_car" route="E_W" depart="800.0" departLane="random" departSpeed="10" />
    <vehicle id="S_N_241" type="standard_car" route="S_N" depart="804.0" departLane="random" departSpeed="10" />
    <vehicle id="S_N_242" type="standard_car" route="S_N" depart="805.0" departLane="random" departSpeed="10" />
    <vehicle id="E_W_243" type="standard_car" route="E_W" depart="806.0" departLane="random" departSpeed="10" />
    <vehicle id="S_N_244" type="standard_car" route="S_N" depart="814.0" departLane="random" departSpeed="10" />
    <vehicle id="N_S_245" type="standard_car" route="N_S" depart="816.0" departLane="random" departSpeed="10" />
    <vehicle id="W_E_246" type="standard_car" route="W_E" depart="816.0" departLane="random" departSpeed="10" />
    <vehicle id="W_E_247" type="standard_car" route="W_E" depart="816.0" departLane="random" departSpeed="10" />
    <vehicle id="E_S_248" type="standard_car" route="E_S" depart="818.0" departLane="random" departSpeed="10" />
    <vehicle id="E_W_249" type="standard_car" route="E_W" depart="818.0" departLane="random" departSpeed="10" />
    <vehicle id="W_E_250" type="standard_car" route="W_E" depart="821.0" departLane="random" departSpeed="10" />
    <vehicle id="N_S_251" type="standard_car" route="N_S" depart="827.0" departLane="random" departSpeed="10" />
    <vehicle id="W_E_252" type="standard_car" route="W_E" depart="829.0" departLane="random" departSpeed="10" />
    <vehicle id="N_S_253" type="standard_car" route="N_S" depart="832.0" departLane="random" departSpeed="10" />
    <vehicle id="N_S_254" type="standard_car" route="N_S" depart="834.0" departLane="random" departSpeed="10" />
    <vehicle id="E_W_255" type="standard_car" route="E_W" depart="834.0" departLane="random" departSpeed="10" />
    <vehicle id="W_E_256" type="standard_car" route="W_E" depart="835.0" departLane="random" departSpeed="10" />