<routes>
            <vType accel="1.0" decel="4.5" id="standard_car" length="5.0" minGap="2.5" maxSpeed="25" sigma="0.5" />

            <route id="W_N" edges="WE2TrafficLight TrafficLight2North"/>
            <route id="W_E" edges="WE2TrafficLight TrafficLight2East"/>
            <route id="W_S" edges="WE2TrafficLight TrafficLight2South"/>
            <route id="N_W" edges="North2TrafficLight TrafficLight2West"/>
            <route id="N_E" edges="North2TrafficLight TrafficLight2East"/>
            <route id="N_S" edges="North2TrafficLight TrafficLight2South"/>
            <route id="E_W" edges="East2TrafficLight TrafficLight2West"/>
            <route id="E_N" edges="East2TrafficLight TrafficLight2North"/>
            <route id="E_S" edges="East2TrafficLight TrafficLight2South"/>
            <route id="S_W" edges="South2TrafficLight TrafficLight2West"/>
            <route id="S_N" edges="South2TrafficLight TrafficLight2North"/>
            <route id="S_E" edges="South2TrafficLight TrafficLight2East"/>
    <vehicle id="W_S_0" type="standard_car" route="W_S" depart="39.0" departLane="random" departSpeed="10" />
    <vehicle id="S_N_1" type="standard_car" route="S_N" depart="45.0" departLane="random" departSpeed="10" />
    <vehicle id="E_W_2" type="standard_car" route="E_W" depart="80.0" departLane="random" departSpeed="10" />
    <vehicle id="E_W_3" type="standard_car" route="E_W" depart="102.0" departLane="random" departSpeed="10" />
    <vehicle id="S_E_4" type="standard_car" route="S_E" depart="107.0" departLane="random" departSpeed="10" />
    <vehicle id="S_N_5" type="standard_car" route="S_N" depart="115.0" departLane="random" departSpeed="10" />
    <vehicle id="E_W_6" type="standard_car" route="E_W" depart="129.0" departLane="random" departSpeed="10" />
    <vehicle id="N_S_7" type="standard_car" route="N_S" depart="131.0" departLane="random" departSpeed="10" />
    <vehicle id="W_E_8" type="standard_car" route="W_E" depart="140.0" departLane="random" departSpeed="10" />
    <vehicle id="S_N_9" type="standard_car" route="S_N" depart="140.0" departLane="random" departSpeed="10" />
    <vehicle id="W_E_10" type="standard_car" route="W_E" depart="147.0" departLane="random" departSpeed="10" />
    <vehicle id="E_W_11" type="standard_car" route="E_W" depart="182.0" departLane="random" departSpeed="10" />
    <vehicle id="S_E_12" type="standard_car" route="S_E" depart="186.0" departLane="random" departSpeed="10" />
    <vehicle id="N_S_13" type="standard_car" route="N_S" depart="190.0" departLane="random" departSpeed="10" />
    <vehicle id="N_S_14" type="standard_car" route="N_S" depart="196.0" departLane="random" departSpeed="10" />
    <vehicle id="S_N_15" type="standard_car" route="S_N" depart="220.0" departLane="random" departSpeed="10" />
    <vehicle id="S_N_16" type="standard_car" route="S_N" depart="226.0" departLane="random" departSpeed="10" />
    <vehicle id="W_E_17" type="standard_car" route="W_E" depart="229.0" departLane="random" departSpeed="10" />
    <vehicle id="S_N_18" type="standard_car" route="S_N" depart="233.0" departLane="random" departSpeed="10" />
    <vehicle id="S_N_19" type="standard_car" route="S_N" depart="240.0" departLane="random" departSpeed="10" />
    <vehicle id="W_E_20" type="standard_car" route="W_E" depart="241.0" departLane="random" departSpeed="10" />
    <vehicle id="N_S_21" type="standard_car" route="N_S" depart="242.0" departLane="random" departSpeed="10" />
    <vehicle id="N_S_22" type="standard_car" route="N_S" depart="255.0" departLane="random" departSpeed="10" />
    <vehicle id="N_W_23" type="standard_car" route="N_W" depart="260.0" departLane="random" departSpeed="10" />
    <vehicle id="S_W_24" type="standard_car" route="S_W" depart="268.0" departLane="random" departSpeed="10" />
    <vehicle id="S_N_25" type="standard_car" route="S_N" depart="274.0" departLane="random" departSpeed="10" />
    <vehicle id="W_E_26" type="standard_car" route="W_E" depart="278.0" departLane="random" departSpeed="10" />
    <vehicle id="S_N_27" type="standard_car" route="S_N" depart="279.0" departLane="random" departSpeed="10" />
    <vehicle id="N_E_28" type="standard_car" route="N_E" depart="285.0" departLane="random" departSpeed="10" />
    <vehicle id="N_S_29" type="standard_car" route="N_S" depart="285.0" departLane="random" departSpeed="10" />
    <vehicle id="W_E_30" type="standard_car" route="W_E" depart="288.0" departLane="random" departSpeed="10" />
    <vehicle id="E_S_31" type="standard_car" route="E_S" depart="294.0" departLane="random" departSpeed="10" />
    <vehicle id="W_S_32" type="standard_car" route="W_S" depart="296.0" departLane="random" departSpeed="10" />
    <vehicle id="E_S_33" type="standard_car" route="E_S" depart="300.0" departLane="random" departSpeed="10" />
    <vehicle id="W_N_34" type="standard_car" route="W_N" depart="304.0" departLane="random" departSpeed="10" />
    <vehicle id="W_E_35" type="standard_car" route="W_E" depart="314.0" departLane="random" departSpeed="10" />
    <vehicle id="W_E_36" type="standard_car" route="W_E" depart="317.0" departLane="random" departSpeed="10" />
    <vehicle id="S_E_37" type="standard_car" route="S_E" depart="317.0" departLane="random" departSpeed="10" />
    <vehicle id="E_W_38" type="standard_car" route="E_W" depart="319.0" departLane="random" departSpeed="10" />
    <vehicle id="N_E_39" type="standard_car" route="N_E" depart="327.0" departLane="random" departSpeed="10" />
    <vehicle id="N_S_40" type="standard_car" route="N_S" depart="328.0" departLane="random" departSpeed="10" />
    <vehicle id="W_S_41" type="standard_car" route="W_S" depart="329.0" departLane="random" departSpeed="10" />
    <vehicle id="N_S_42" type="standard_car" route="N_S" depart="335.0" departLane="random" departSpeed="10" />
    <vehicle id="N_S_43" type="standard_car" route="N_S" depart="336.0" departLane="random" departSpeed="10" />
    <vehicle id="W_E_44" type="standard_car" route="W_E" depart="341.0" departLane="random" departSpeed="10" />
    <vehicle id="E_S_45" type="standard_car" route="E_S" depart="342.0" departLane="random" departSpeed="10" />
    <vehicle id="S_N_46" type="standard_car" route="S_N" depart="344.0" departLane="random" departSpeed="10" />
    <vehicle id="N_S_47" type="standard_car" route="N_S" depart="349.0" departLane="random" departSpeed="10" />
    <vehicle id="W_E_48" type="standard_car" route="W_E" depart="349.0" departLane="random" departSpeed="10" />
    <vehicle id="S_N_49" type="standard_car" route="S_N" depart="362.0" departLane="random" departSpeed="10" />
    <vehicle id="N_S_50" type="standard_car" route="N_S" depart="362.0" departLane="random" departSpeed="10" />
    <vehicle id="S_W_51" type="standard_car" route="S_W" depart="363.0" departLane="random" departSpeed="10" />
    <vehicle id="N_W_52" type="standard_car" route="N_W" depart="367.0" departLane="random" departSpeed="10" />
    <vehicle id="E_W_53" type="standard_car" route="E_W" depart="368.0" departLane="random" departSpeed="10" />
    <vehicle id="N_E_54" type="standard_car" route="N_E" depart="375.0" departLane="random" departSpeed="10" />
    <vehicle id="W_E_55" type="standard_car" route="W_E" depart="380.0" departLane="random" departSpeed="10" />
    <vehicle id="N_S_56" type="standard_car" route="N_S" depart="380.0" departLane="random" departSpeed="10" />
    <vehicle id="W_E_57" type="standard_car" route="W_E" depart="390.0" departLane="random" departSpeed="10" />
    <vehicle id="S_N_58" type="standard_car" route="S_N" depart="391.0" departLane="random" departSpeed="10" />
    <vehicle id="E_S_59" type="standard_car" route="E_S" depart="404.0" departLane="random" departSpeed="10" />
    <vehicle id="S_N_60" type="standard_car" route="S_N" depart="409.0" departLane="random" departSpeed="10" />
    <vehicle id="S_N_61" type="standard_car" route="S_N" depart="415.0" departLane="random" departSpeed="10" />
    <vehicle id="S_E_62" type="standard_car" route="S_E" depart="417.0" departLane="random" departSpeed="10" />
    <vehicle id="S_W_63" type="standard_car" route="S_W" depart="419.0" departLane="random" departSpeed="10" />
    <vehicle id="W_E_64" type="standard_car" route="W_E" depart="422.0" departLane="random" departSpeed="10" />
    <vehicle id="E_W_65" type="standard_car" route="E_W" depart="427.0" departLane="random" departSpeed="10" />
    <vehicle id="W_E_66" type="standard_car" route="W_E" depart="429.0" departLane="random" departSpeed="10" />
    <vehicle id="W_E_67" type="standard_car" route="W_E" depart="430.0" departLane="random" departSpeed="10" />
    <vehicle id="W_S_68" type="standard_car" route="W_S" depart="432.0" departLane="random" departSpeed="10" />
    <vehicle id="W_E_69" type="standard_car" route="W_E" depart="439.0" departLane="random" departSpeed="10" />
    <vehicle id="N_E_70" type="standard_car" route="N_E" depart="440.0" departLane="random" departSpeed="10" />
    <vehicle id="N_S_71" type="standard_car" route="N_S" depart="444.0" departLane="random" departSpeed="10" />
    <vehicle id="E_W_72" type="standard_car" route="E_W" depart="447.0" departLane="random" departSpeed="10" />
    <vehicle id="W_E_73" type="standard_car" route="W_E" depart="453.0" departLane="random" departSpeed="10" />
    <vehicle id="E_W_74" type="standard_car" route="E_W" depart="455.0" departLane="random" departSpeed="10" />
    <vehicle id="N_S_75" type="standard_car" route="N_S" depart="458.0" departLane="random" departSpeed="10" />
    <vehicle id="E_W_76" type="standard_car" route="E_W" depart="459.0" departLane="random" departSpeed="10" />
    <vehicle id="W_E_77" type="standard_car" route="W_E" depart="462.0" departLane="random" departSpeed="10" />
    <vehicle id="S_W_78" type="standard_car" route="S_W" depart="462.0" departLane="random" departSpeed="10" />
    <vehicle id="E_W_79" type="standard_car" route="E_W" depart="463.0" departLane="random" departSpeed="10" />
    <vehicle id="N_S_80" type="standard_car" route="N_S" depart="470.0" departLane="random" departSpeed="10" />
    <vehicle id="N_S_81" type="standard_car" route="N_S" depart="474.0" departLane="random" departSpeed="10" />
    <vehicle id="E_W_82" type="standard_car" route="E_W" depart="484.0" departLane="random" departSpeed="10" />
    <vehicle id="N_W_83" type="standard_car" route="N_W" depart="486.0" departLane="random" departSpeed="10" />
    <vehicle id="W_E_84" type="standard_car" route="W_E" depart="489.0" departLane="random" departSpeed="10" />
    <vehicle id="N_E_85" type="standard_car" route="N_E" depart="492.0" departLane="random" departSpeed="10" />
    <vehicle id="W_E_86" type="standard_car" route="W_E" depart="492.0" departLane="random" departSpeed="10" />
    <vehicle id="E_W_87" type="standard_car" route="E_W" depart="492.0" departLane="random" departSpeed="10" />
    <vehicle id="S_N_88" type="standard_car" route="S_N" depart="504.0" departLane="random" departSpeed="10" />
    <vehicle id="N_S_89" type="standard_car" route="N_S" depart="506.0" departLane="random" departSpeed="10" />
    <vehicle id="N_S_90" type="standard_car" route="N_S" depart="508.0" departLane="random" departSpeed="10" />
    <vehicle id="S_N_91" type="standard_car" route="S_N" depart="510.0" departLane="random" departSpeed="10" />
    <vehicle id="N_S_92" type="standard_car" route="N_S" depart="514.0" departLane="random" departSpeed="10" />
    <vehicle id="N_S_93" type="standard_car" route="N_S" depart="524.0" departLane="random" departSpeed="10" />
    <vehicle id="S_N_94" type="standard_car" route="S_N" depart="526.0" departLane="random" departSpeed="10" />
    <vehicle id="S_W_95" type="standard_car" route="S_W" depart="526.0" departLane="random" departSpeed="10" />
    <vehicle id="S_N_96" type="standard_car" route="S_N" depart="528.0" departLane="random" departSpeed="10" />
    <vehicle id="E_W_97" type="standard_car" route="E_W" depart="533.0" departLane="random" departSpeed="10" />
    <vehicle id="N_S_98" type="standard_car" route="N_S" depart="546.0" departLane="random" departSpeed="10" />
    <vehicle id="W_E_99" type="standard_car" route="W_E" depart="546.0" departLane="random" departSpeed="10" />
    <vehicle id="N_S_100" type="standard_car" route="N_S" depart="546.0" departLane="random" departSpeed="10" />
    <vehicle id="E_N_101" type="standard_car" route="E_N" depart="548.0" departLane="random" departSpeed="10" />
    <vehicle id="S_N_102" type="standard_car" route="S_N" depart="552.0" departLane="random" departSpeed="10" />
    <vehicle id="E_N_103" type="standard_car" route="E_N" depart="555.0" departLane="random" departSpeed="10" />
    <vehicle id="N_S_104" type="standard_car" route="N_S" depart="555.0" departLane="random" departSpeed="10" />
    <vehicle id="N_S_105" type="standard_car" route="N_S" depart="556.0" departLane="random" departSpeed="10" />
    <vehicle id="N_S_106" type="standard_car" route="N_S" depart="566.0" departLane="random" departSpeed="10" />
    <vehicle id="S_N_107" type="standard_car" route="S_N" depart="570.0" departLane="random" departSpeed="10" />
    <vehicle id="S_W_108" type="standard_car" route="S_W" depart="572.0" departLane="random" departSpeed="10" />
    <vehicle id="W_E_109" type="standard_car" route="W_E" depart="585.0" departLane="random" departSpeed="10" />
    <vehicle id="S_N_110" type="standard_car" route="S_N" depart="587.0" departLane="random" departSpeed="10" />
    <vehicle id="E_W_111" type="standard_car" route="E_W" depart="593.0" departLane="random" departSpeed="10" />
    <vehicle id="S_E_112" type="standard_car" route="S_E" depart="600.0" departLane="random" departSpeed="10" />
    <vehicle id="S_W_113" type="standard_car" route="S_W" depart="610.0" departLane="random" departSpeed="10" />
    <vehicle id="E_N_114" type="standard_car" route="E_N" depart="610.0" departLane="random" departSpeed="10" />
    <vehicle id="N_S_115" type="standard_car" route="N_S" depart="612.0" departLane="random" departSpeed="10" />
    <vehicle id="E_W_116" type="standard_car" route="E_W" depart="620.0" departLane="random" departSpeed="10" />
    <vehicle id="W_E_117" type="standard_car" route="W_E" depart="623.0" departLane="random" departSpeed="10" />
    <vehicle id="S_E_118" type="standard_car" route="S_E" depart="624.0" departLane="random" departSpeed="10" />
    <vehicle id="E_W_119" type="standard_car" route="E_W" depart="624.0" departLane="random" departSpeed="10" />
    <vehicle id="E_N_120" type="standard_car" route="E_N" depart="634.0" departLane="random" departSpeed="10" />
    <vehicle id="W_E_121" type="standard_car" route="W_E" depart="635.0" departLane="random" departSpeed="10" />
    <vehicle id="W_N_122" type="standard_car" route="W_N" depart="640.0" departLane="random" departSpeed="10" />
    <vehicle id="S_N_123" type="standard_car" route="S_N" depart="645.0" departLane="random" departSpeed="10" />
    <vehicle id="W_E_124" type="standard_car" route="W_E" depart="646.0" departLane="random" departSpeed="10" />
    <vehicle id="S_N_125" type="standard_car" route="S_N" depart="647.0" departLane="random" departSpeed="10" />
    <vehicle id="S_N_126" type="standard_car" route="S_N" depart="651.0" departLane="random" departSpeed="10" />
    <vehicle id="S_N_127" type="standard_car" route="S_N" depart="651.0" departLane="random" departSpeed="10" />
    <vehicle id="S_W_128" type="standard_car" route="S_W" depart="655.0" departLane="random" departSpeed="10" />
    <vehicle id="N_S_129" type="standard_car" route="N_S" depart="656.0" departLane="random" departSpeed="10" />
    <vehicle id="N_S_130" type="standard_car" route="N_S" depart="657.0" departLane="random" departSpeed="10" />
    <vehicle id="S_W_131" type="standard_car" route="S_W" depart="660.0" departLane="random" departSpeed="10" />
    <vehicle id="W_S_132" type="standard_car" route="W_S" depart="668.0" departLane="random" departSpeed="10" />
    <vehicle id="E_W_133" type="standard_car" route="E_W" depart="668.0" departLane="random" departSpeed="10" />
    <vehicle id="W_E_134" type="standard_car" route="W_E" depart="669.0" departLane="random" departSpeed="10" />
    <vehicle id="E_W_135" type="standard_car" route="E_W" depart="673.0" departLane="random" departSpeed="10" />
    <vehicle id="N_S_136" type="standard_car" route="N_S" depart="673.0" departLane="random" departSpeed="10" />
    <vehicle id="N_S_137" type="standard_car" route="N_S" depart="674.0" departLane="random" departSpeed="10" />
    <vehicle id="N_S_138" type="standard_car" route="N_S" depart="674.0" departLane="random" departSpeed="10" />
    <vehicle id="S_N_139" type="standard_car" route="S_N" depart="676.0" departLane="random" departSpeed="10" />
    <vehicle id="W_E_140" type="standard_car" route="W_E" depart="677.0" departLane="random" departSpeed="10" />
    <vehicle id="S_N_141" type="standard_car" route="S_N" depart="684.0" departLane="random" departSpeed="10" />
    <vehicle id="W_E_142" type="standard_car" route="W_E" depart="686.0" departLane="random" departSpeed="10" />
    <vehicle id="N_S_143" type="standard_car" route="N_S" depart="691.0" departLane="random" departSpeed="10" />
    <vehicle id="E_W_144" type="standard_car" route="E_W" depart="692.0" departLane="random" departSpeed="10" />
    <vehicle id="N_S_145" type="standard_car" route="N_S" depart="697.0" departLane="random" departSpeed="10" />
    <vehicle id="N_E_146" type="standard_car" route="N_E" depart="700.0" departLane="random" departSpeed="10" />
    <vehicle id="E_W_147" type="standard_car" route="E_W" depart="703.0" departLane="random" departSpeed="10" />
    <vehicle id="W_S_148" type="standard_car" route="W_S" depart="703.0" departLane="random" departSpeed="10" />
    <vehicle id="S_N_149" type="standard_car" route="S_N" depart="704.0" departLane="random" departSpeed="10" />
    <vehicle id="S_W_150" type="standard_car" route="S_W" depart="706.0" departLane="random" departSpeed="10" />
    <vehicle id="E_N_151" type="standard_car" route="E_N" depart="714.0" departLane="random" departSpeed="10" />
    <vehicle id="W_E_152" type="standard_car" route="W_E" depart="717.0" departLane="random" departSpeed="10" />
    <vehicle id="W_E_153" type="standard_car" route="W_E" depart="719.0" departLane="random" departSpeed="10" />
    <vehicle id="W_E_154" type="standard_car" route="W_E" depart="727.0" departLane="random" departSpeed="10" />
    <vehicle id="N_S_155" type="standard_car" route="N_S" depart="728.0" departLane="random" departSpeed="10" />
    <vehicle id="E_W_156" type="standard_car" route="E_W" depart="732.0" departLane="random" departSpeed="10" />
    <vehicle id="N_S_157" type="standard_car" route="N_S" depart="734.0" departLane="random" departSpeed="10" />
    <vehicle id="W_E_158" type="standard_car" route="W_E" depart="734.0" departLane="random" departSpeed="10" />
    <vehicle id="W_E_159" type="standard_car" route="W_E" depart="745.0" departLane="random" departSpeed="10" />
    <vehicle id="W_E_160" type="standard_car" route="W_E" depart="746.0" departLane="random" departSpeed="10" />
    <vehicle id="W_E_161" type="standard_car" route="W_E" depart="746.0" departLane="random" departSpeed="10" />
    <vehicle id="N_S_162" type="standard_car" route="N_S" depart="749.0" departLane="random" departSpeed="10" />
    <vehicle id="W_E_163" type="standard_car" route="W_E" depart="749.0" departLane="random" departSpeed="10" />
    <vehicle id="S_N_164" type="standard_car" route="S_N" depart="749.0" departLane="random" departSpeed="10" />
    <vehicle id="S_N_165" type="standard_car" route="S_N" depart="754.0" departLane="random" departSpeed="10" />
    <vehicle id="N_S_166" type="standard_car" route="N_S" depart="756.0" departLane="random" departSpeed="10" />
    <vehicle id="W_E_167" type="standard_car" route="W_E" depart="761.0" departLane="random" departSpeed="10" />
    <vehicle id="S_N_168" type="standard_car" route="S_N" depart="762.0" departLane="random" departSpeed="10" />
    <vehicle id="W_E_169" type="standard_car" route="W_E" depart="763.0" departLane="random" departSpeed="10" />
    <vehicle id="E_W_170" type="standard_car" route="E_W" depart="766.0" departLane="random" departSpeed="10" />
    <vehicle id="S_N_171" type="standard_car" route="S_N" depart="768.0" departLane="random" departSpeed="10" />
    <vehicle id="E_N_172" type="standard_car" route="E_N" depart="769.0" departLane="random" departSpeed="10" />
    <vehicle id="S_N_173" type="standard_car" route="S_N" depart="771.0" departLane="random" departSpeed="10" />
    <vehicle id="E_W_174" type="standard_car" route="E_W" depart="777.0" departLane="random" departSpeed="10" />
    <vehicle id="S_N_175" type="standard_car" route="S_N" depart="781.0" departLane="random" departSpeed="10" />
    <vehicle id="S_N_176" type="standard_car" route="S_N" depart="789.0" departLane="random" departSpeed="10" />
    <vehicle id="W_E_177" type="standard_car" route="W_E" depart="792.0" departLane="random" departSpeed="10" />
    <vehicle id="N_S_178" type="standard_car" route="N_S" depart="793.0" departLane="random" departSpeed="10" />
    <vehicle id="S_E_179" type="standard_car" route="S_E" depart="794.0" departLane="random" departSpeed="10" />
    <vehicle id="N_S_180" type="standard_car" route="N_S" depart="794.0" departLane="random" departSpeed="10" />
    <vehicle id="W_E_181" type="standard_car" route="W_E" depart="796.0" departLane="random" departSpeed="10" />
    <vehicle id="E_W_182" type="standard_car" route="E_W" depart="797.0" departLane="random" departSpeed="10" />
    <vehicle id="W_E_183" type="standard_car" route="W_E" depart="801.0" departLane="random" departSpeed="10" />
    <vehicle id="N_S_184" type="standard_car" route="N_S" depart="801.0" departLane="random" departSpeed="10" />
    <vehicle id="N_S_185" type="standard_car" route="N_S" depart="804.0" departLane="random" departSpeed="10" />
    <vehicle id="N_W_186" type="standard_car" route="N_W" depart="804.0" departLane="random" departSpeed="10" />
    <vehicle id="S_N_187" type="standard_car" route="S_N" depart="805.0" departLane="random" departSpeed="10" />
    <vehicle id="S_N_188" type="standard_car" route="S_N" depart="806.0" departLane="random" departSpeed="10" />
    <vehicle id="W_E_189" type="standard_car" route="W_E" depart="808.0" departLane="random" departSpeed="10" />
    <vehicle id="W_E_190" type="standard_car" route="W_E" depart="816.0" departLane="random" departSpeed="10" />
    <vehicle id="N_S_191" type="standard_car" route="N_S" depart="821.0" departLane="random" departSpeed="10" />
    <vehicle id="S_N_192" type="standard_car" route="S_N" depart="822.0" departLane="random" departSpeed="10" />
    <vehicle id="S_N_193" type="standard_car" route="S_N" depart="822.0" departLane="random" departSpeed="10" />
    <vehicle id="N_S_194" type="standard_car" route="N_S" depart="824.0" departLane="random" departSpeed="10" />
    <vehicle id="S_N_195" type="standard_car" route="S_N" depart="825.0" departLane="random" departSpeed="10" />
    <vehicle id="S_E_196" type="standard_car" route="S_E" depart="826.0" departLane="random" departSpeed="10" />
    <vehicle id="W_E_197" type="standard_car" route="W_E" depart="828.0" departLane="random" departSpeed="10" />
    <vehicle id="S_N_198" type="standard_car" route="S_N" depart="828.0" departLane="random" departSpeed="10" />
    <vehicle id="N_S_199" type="standard_car" route="N_S" depart="828.0" departLane="random" departSpeed="10" />
    <vehicle id="N_E_200" type="standard_car" route="N_E" depart="833.0" departLane="random" departSpeed="10" />
    <vehicle id="W_N_201" type="standard_car" route="W_N" depart="834.0" departLane="random" departSpeed="10" />
    <vehicle id="S_W_202" type="standard_car" route="S_W" depart="837.0" departLane="random" departSpeed="10" />
    <vehicle id="W_N_203" type="standard_car" route="W_N" depart="844.0" departLane="random" departSpeed="10" />
    <vehicle id="E_W_204" type="standard_car" route="E_W" depart="844.0" departLane="random" departSpeed="10" />
    <vehicle id="N_S_205" type="standard_car" route="N_S" depart="852.0" departLane="random" departSpeed="10" />
    <vehicle id="W_E_206" type="standard_car" route="W_E" depart="852.0" departLane="random" departSpeed="10" />
    <vehicle id="S_N_207" type="standard_car" route="S_N" depart="855.0" departLane="random" departSpeed="10" />
    <vehicle id="N_S_208" type="standard_car" route="N_S" depart="855.0" departLane="random" departSpeed="10" />
    <vehicle id="S_N_209" type="standard_car" route="S_N" depart="858.0" departLane="random" departSpeed="10" />
    <vehicle id="N_E_210" type="standard_car" route="N_E" depart="858.0" departLane="random" departSpeed="10" />
    <vehicle id="N_S_211" type="standard_car" route="N_S" depart="860.0" departLane="random" departSpeed="10" />
    <vehicle id="N_S_212" type="standard_car" route="N_S" depart="866.0" departLane="random" departSpeed="10" />
    <vehicle id="N_S_213" type="standard_car" route="N_S" depart="868.0" departLane="random" departSpeed="10" />
    <vehicle id="N_S_214" type="standard_car" route="N_S" depart="869.0" departLane="random" departSpeed="10" />
    <vehicle id="E_W_215" type="standard_car" route="E_W" depart="871.0" departLane="random" departSpeed="10" />
    <vehicle id="N_S_216" type="standard_car" route="N_S" depart="875.0" departLane="random" departSpeed="10" />
    <vehicle id="N_E_217" type="standard_car" route="N_E" depart="883.0" departLane="random" departSpeed="10" />
    <vehicle id="N_E_218" type="standard_car" route="N_E" depart="891.0" departLane="random" departSpeed="10" />
    <vehicle id="W_N_219" type="standard_car" route="W_N" depart="894.0" departLane="random" departSpeed="10" />
    <vehicle id="E_W_220" type="standard_car" route="E_W" depart="897.0" departLane="random" departSpeed="10" />
    <vehicle id="N_S_221" type="standard_car" route="N_S" depart="903.0" departLane="random" departSpeed="10" />
    <vehicle id="W_E_222" type="standard_car" route="W_E" depart="909.0" departLane="random" departSpeed="10" />
    <vehicle id="N_S_223" type="standard_car" route="N_S" depart="909.0" departLane="random" departSpeed="10" />
    <vehicle id="N_W_224" type="standard_car" route="N_W" depart="910.0" departLane="random" departSpeed="10" />
    <vehicle id="N_S_225" type="standard_car" route="N_S" depart="910.0" departLane="random" departSpeed="10" />
    <vehicle id="S_N_226" type="standard_car" route="S_N" depart="910.0" departLane="random" departSpeed="10" />
    <vehicle id="W_E_227" type="standard_car" route="W_E" depart="911.0" departLane="random" departSpeed="10" />
    <vehicle id="N_S_228" type="standard_car" route="N_S" depart="913.0" departLane="random" departSpeed="10" />
    <vehicle id="E_W_229" type="standard_car" route="E_W" depart="915.0" departLane="random" departSpeed="10" />
    <vehicle id="E_W_230" type="standard_car" route="E_W" depart="917.0" departLane="random" departSpeed="10" />
    <vehicle id="S_N_231" type="standard_car" route="S_N" depart="918.0" departLane="random" departSpeed="10" />
    <vehicle id="S_N_232" type="standard_car" route="S_N" depart="918.0" departLane="random" departSpeed="10" />
    <vehicle id="S_N_233" type="standard_car" route="S_N" depart="931.0" departLane="random" departSpeed="10" />
    <vehicle id="N_W_234" type="standard_car" route="N_W" depart="931.0" departLane="random" departSpeed="10" />
    <vehicle id="S_N_235" type="standard_car" route="S_N" depart="933.0" departLane="random" departSpeed="10" />
    <vehicle id="S_N_236" type="standard_car" route="S_N" depart="935.0" departLane="random" departSpeed="10" />
    <vehicle id="S_N_237" type="standard_car" route="S_N" depart="935.0" departLane="random" departSpeed="10" />
    <vehicle id="S_N_238" type="standard_car" route="S_N" depart="936.0" departLane="random" departSpeed="10" />
    <vehicle id="W_N_239" type="standard_car" route="W_N" depart="939.0" departLane="random" departSpeed="10" />
    <vehicle id="W_E_240" type="standard_car" route="W_E" depart="940.0" departLane="random" departSpeed="10" />
    <vehicle id="S_N_241" type="standard_car" route="S_N" depart="941.0" departLane="random" departSpeed="10" />
    <vehicle id="E_W_242" type="standard_car" route="E_W" depart="945.0" departLane="random" departSpeed="10" />
    <vehicle id="E_S_243" type="standard_car" route="E_S" depart="950.0" departLane="random" departSpeed="10" />
    <vehicle id="E_W_244" type="standard_car" route="E_W" depart="956.0" departLane="random" departSpeed="10" />
    <vehicle id="N_W_245" type="standard_car" route="N_W" depart="957.0" departLane="random" departSpeed="10" />
    <vehicle id="E_W_246" type="standard_car" route="E_W" depart="959.0" departLane="random" departSpeed="10" />
    <vehicle id="S_N_247" type="standard_car" route="S_N" depart="962.0" departLane="random" departSpeed="10" />
    <vehicle id="W_E_248" type="standard_car" route="W_E" depart="962.0" departLane="random" departSpeed="10" />
    <vehicle id="N_S_249" type="standard_car" route="N_S" depart="966.0" departLane="random" departSpeed="10" />
    <vehicle id="N_W_250" type="standard_car" route="N_W" depart="966.0" departLane="random" departSpeed="10" />
    <vehicle id="E_W_251" type="standard_car" route="E_W" depart="969.0" departLane="random" departSpeed="10" />
    <vehicle id="N_W_252" type="standard_car" route="N_W" depart="969.0" departLane="random" departSpeed="10" />
    <vehicle id="N_S_253" type="standard_car" route="N_S" depart="970.0" departLane="random" departSpeed="10" />
    <vehicle id="W_E_254" type="standard_car" route="W_E" depart="971.0" departLane="random" departSpeed="10" />
    <vehicle id="W_E_255" type="standard_car" route="W_E" depart="971.0" departLane="random" departSpeed="10" />
    <vehicle id="E_W_256" type="standard_car" route="E_W" depart="972.0" departLane="random" departSpeed="10" />