<routes>
            <vType accel="1.0" decel="4.5" id="standard_car" length="5.0" minGap="2.5" maxSpeed="25" sigma="0.5" />

            <route id="W_N" edges="WE2TrafficLight TrafficLight2North"/>
            <route id="W_E" edges="WE2TrafficLight TrafficLight2East"/>
            <route id="W_S" edges="WE2TrafficLight TrafficLight2South"/>
            <route id="N_W" edges="North2TrafficLight TrafficLight2West"/>
            <route id="N_E" edges="North2TrafficLight TrafficLight2East"/>
            <route id="N_S" edges="North2TrafficLight TrafficLight2South"/>
            <route id="E_W" edges="East2TrafficLight TrafficLight2West"/>
            <route id="E_N" edges="East2TrafficLight TrafficLight2North"/>
            <route id="E_S" edges="East2TrafficLight TrafficLight2South"/>
            <route id="S_W" edges="South2TrafficLight TrafficLight2West"/>
            <route id="S_N" edges="South2TrafficLight TrafficLight2North"/>
            <route id="S_E" edges="South2TrafficLight TrafficLight2East"/>
    <vehicle id="W_E_0" type="standard_car" route="W_E" depart="7.0" departLane="random" departSpeed="10" />
    <vehicle id="W_N_1" type="standard_car" route="W_N" depart="10.0" departLane="random" departSpeed="10" />
    <vehicle id="W_E_2" type="standard_car" route="W_E" depart="13.0" departLane="random" departSpeed="10" />
    <vehicle id="N_E_3" type="standard_car" route="N_E" depart="13.0" departLane="random" departSpeed="10" />
    <vehicle id="W_S_4" type="standard_car" route="W_S" depart="13.0" departLane="random" departSpeed="10" />
    <vehicle id="E_W_5" type="standard_car" route="E_W" depart="13.0" departLane="random" departSpeed="10" />
    <vehicle id="W_E_6" type="standard_car" route="W_E" depart="16.0" departLane="random" departSpeed="10" />
    <vehicle id="W_S_7" type="standard_car" route="W_S" depart="20.0" departLane="random" departSpeed="10" />
    <vehicle id="W_E_8" type="standard_car" route="W_E" depart="20.0" departLane="random" departSpeed="10" />
    <vehicle id="N_S_9" type="standard_car" route="N_S" depart="22.0" departLane="random" departSpeed="10" />
    <vehicle id="E_S_10" type="standard_car" route="E_S" depart="23.0" departLane="random" departSpeed="10" />
    <vehicle id="N_S_11" type="standard_car" route="N_S" depart="25.0" departLane="random" departSpeed="10" />
    <vehicle id="N_S_12" type="standard_car" route="N_S" depart="26.0" departLane="random" departSpeed="10" />
    <vehicle id="E_S_13" type="standard_car" route="E_S" depart="26.0" departLane="random" departSpeed="10" />
    <vehicle id="N_W_14" type="standard_car" route="N_W" depart="26.0" departLane="random" departSpeed="10" />
    <vehicle id="W_S_15" type="standard_car" route="W_S" depart="28.0" departLane="random" departSpeed="10" />
    <vehicle id="S_N_16" type="standard_car" route="S_N" depart="28.0" departLane="random" departSpeed="10" />
    <vehicle id="S_N_17" type="standard_car" route="S_N" depart="29.0" departLane="random" departSpeed="10" />
    <vehicle id="S_E_18" type="standard_car" route="S_E" depart="29.0" departLane="random" departSpeed="10" />
    <vehicle id="E_W_19" type="standard_car" route="E_W" depart="30.0" departLane="random" departSpeed="10" />
    <vehicle id="S_N_20" type="standard_car" route="S_N" depart="30.0" departLane="random" departSpeed="10" />
    <vehicle id="E_W_21" type="standard_car" route="E_W" depart="30.0" departLane="random" departSpeed="10" />
    <vehicle id="E_W_22" type="standard_car" route="E_W" depart="31.0" departLane="random" departSpeed="10" />
    <vehicle id="N_S_23" type="standard_car" route="N_S" depart="33.0" departLane="random" departSpeed="10" />
    <vehicle id="E_W_24" type="standard_car" route="E_W" depart="33.0" departLane="random" departSpeed="10" />
    <vehicle id="N_W_25" type="standard_car" route="N_W" depart="33.0" departLane="random" departSpeed="10" />
    <vehicle id="W_E_26" type="standard_car" route="W_E" depart="34.0" departLane="random" departSpeed="10" />
    <vehicle id="W_E_27" type="standard_car" route="W_E" depart="34.0" departLane="random" departSpeed="10" />
    <vehicle id="S_N_28" type="standard_car" route="S_N" depart="35.0" departLane="random" departSpeed="10" />
    <vehicle id="N_S_29" type="standard_car" route="N_S" depart="36.0" departLane="random" departSpeed="10" />
    <vehicle id="E_W_30" type="standard_car" route="E_W" depart="37.0" departLane="random" departSpeed="10" />
    <vehicle id="S_N_31" type="standard_car" route="S_N" depart="39.0" departLane="random" departSpeed="10" />
    <vehicle id="S_N_32" type="standard_car" route="S_N" depart="40.0" departLane="random" departSpeed="10" />
    <vehicle id="E_W_33" type="standard_car" route="E_W" depart="43.0" departLane="random" departSpeed="10" />
    <vehicle id="W_E_34" type="standard_car" route="W_E" depart="43.0" departLane="random" departSpeed="10" />
    <vehicle id="W_E_35" type="standard_car" route="W_E" depart="44.0" departLane="random" departSpeed="10" />
    <vehicle id="N_E_36" type="standard_car" route="N_E" depart="44.0" departLane="random" departSpeed="10" />
    <vehicle id="W_E_37" type="standard_car" route="W_E" depart="46.0" departLane="random" departSpeed="10" />
    <vehicle id="W_E_38" type="standard_car" route="W_E" depart="47.0" departLane="random" departSpeed="10" />
    <vehicle id="W_E_39" type="standard_car" route="W_E" depart="49.0" departLane="random" departSpeed="10" />
    <vehicle id="W_S_40" type="standard_car" route="W_S" depart="49.0" departLane="random" departSpeed="10" />
    <vehicle id="S_N_41" type="standard_car" route="S_N" depart="49.0" departLane="random" departSpeed="10" />
    <vehicle id="W_E_42" type="standard_car" route="W_E" depart="50.0" departLane="random" departSpeed="10" />
    <vehicle id="S_N_43" type="standard_car" route="S_N" depart="50.0" departLane="random" departSpeed="10" />
    <vehicle id="N_S_44" type="standard_car" route="N_S" depart="51.0" departLane="random" departSpeed="10" />
    <vehicle id="S_N_45" type="standard_car" route="S_N" depart="52.0" departLane="random" departSpeed="10" />
    <vehicle id="E_W_46" type="standard_car" route="E_W" depart="53.0" departLane="random" departSpeed="10" />
    <vehicle id="S_W_47" type="standard_car" route="S_W" depart="53.0" departLane="random" departSpeed="10" />
    <vehicle id="E_W_48" type="standard_car" route="E_W" depart="54.0" departLane="random" departSpeed="10" />
    <vehicle id="S_W_49" type="standard_car" route="S_W" depart="54.0" departLane="random" departSpeed="10" />
    <vehicle id="W_E_50" type="standard_car" route="W_E" depart="55.0" departLane="random" departSpeed="10" />
    <vehicle id="E_W_51" type="standard_car" route="E_W" depart="55.0" departLane="random" departSpeed="10" />
    <vehicle id="N_S_52" type="standard_car" route="N_S" depart="55.0" departLane="random" departSpeed="10" />
    <vehicle id="E_S_53" type="standard_car" route="E_S" depart="55.0" departLane="random" departSpeed="10" />
    <vehicle id="N_S_54" type="standard_car" route="N_S" depart="55.0" departLane="random" departSpeed="10" />
    <vehicle id="S_N_55" type="standard_car" route="S_N" depart="55.0" departLane="random" departSpeed="10" />
    <vehicle id="E_N_56" type="standard_car" route="E_N" depart="56.0" departLane="random" departSpeed="10" />
    <vehicle id="S_W_57" type="standard_car" route="S_W" depart="56.0" departLane="random" departSpeed="10" />
    <vehicle id="E_W_58" type="standard_car" route="E_W" depart="57.0" departLane="random" departSpeed="10" />
    <vehicle id="W_E_59" type="standard_car" route="W_E" depart="59.0" departLane="random" departSpeed="10" />
    <vehicle id="E_W_60" type="standard_car" route="E_W" depart="59.0" departLane="random" departSpeed="10" />
    <vehicle id="W_E_61" type="standard_car" route="W_E" depart="60.0" departLane="random" departSpeed="10" />
    <vehicle id="S_N_62" type="standard_car" route="S_N" depart="61.0" departLane="random" departSpeed="10" />
    <vehicle id="S_N_63" type="standard_car" route="S_N" depart="62.0" departLane="random" departSpeed="10" />
    <vehicle id="N_S_64" type="standard_car" route="N_S" depart="65.0" departLane="random" departSpeed="10" />
    <vehicle id="W_S_65" type="standard_car" route="W_S" depart="65.0" departLane="random" departSpeed="10" />
    <vehicle id="W_E_66" type="standard_car" route="W_E" depart="67.0" departLane="random" departSpeed="10" />
    <vehicle id="N_S_67" type="standard_car" route="N_S" depart="67.0" departLane="random" departSpeed="10" />
    <vehicle id="W_E_68" type="standard_car" route="W_E" depart="68.0" departLane="random" departSpeed="10" />
    <vehicle id="W_E_69" type="standard_car" route="W_E" depart="68.0" departLane="random" departSpeed="10" />
    <vehicle id="S_W_70" type="standard_car" route="S_W" depart="70.0" departLane="random" departSpeed="10" />
    <vehicle id="W_E_71" type="standard_car" route="W_E" depart="72.0" departLane="random" departSpeed="10" />
    <vehicle id="W_E_72" type="standard_car" route="W_E" depart="73.0" departLane="random" departSpeed="10" />
    <vehicle id="N_S_73" type="standard_car" route="N_S" depart="73.0" departLane="random" departSpeed="10" />
    <vehicle id="S_N_74" type="standard_car" route="S_N" depart="73.0" departLane="random" departSpeed="10" />
    <vehicle id="W_E_75" type="standard_car" route="W_E" depart="73.0" departLane="random" departSpeed="10" />
    <vehicle id="S_N_76" type="standard_car" route="S_N" depart="74.0" departLane="random" departSpeed="10" />
    <vehicle id="W_E_77" type="standard_car" route="W_E" depart="76.0" departLane="random" departSpeed="10" />
    <vehicle id="E_W_78" type="standard_car" route="E_W" depart="77.0" departLane="random" departSpeed="10" />
    <vehicle id="E_N_79" type="standard_car" route="E_N" depart="79.0" departLane="random" departSpeed="10" />
    <vehicle id="E_W_80" type="standard_car" route="E_W" depart="79.0" departLane="random" departSpeed="10" />
    <vehicle id="W_E_81" type="standard_car" route="W_E" depart="83.0" departLane="random" departSpeed="10" />
    <vehicle id="E_W_82" type="standard_car" route="E_W" depart="84.0" departLane="random" departSpeed="10" />
    <vehicle id="N_E_83" type="standard_car" route="N_E" depart="85.0" departLane="random" departSpeed="10" />
    <vehicle id="W_E_84" type="standard_car" route="W_E" depart="85.0" departLane="random" departSpeed="10" />
    <vehicle id="N_S_85" type="standard_car" route="N_S" depart="88.0" departLane="random" departSpeed="10" />
    <vehicle id="S_E_86" type="standard_car" route="S_E" depart="94.0" departLane="random" departSpeed="10" />
    <vehicle id="E_W_87" type="standard_car" route="E_W" depart="95.0" departLane="random" departSpeed="10" />
    <vehicle id="S_W_88" type="standard_car" route="S_W" depart="96.0" departLane="random" departSpeed="10" />
    <vehicle id="S_N_89" type="standard_car" route="S_N" depart="97.0" departLane="random" departSpeed="10" />
    <vehicle id="S_E_90" type="standard_car" route="S_E" depart="101.0" departLane="random" departSpeed="10" />
    <vehicle id="E_S_91" type="standard_car" route="E_S" depart="103.0" departLane="random" departSpeed="10" />
    <vehicle id="N_S_92" type="standard_car" route="N_S" depart="103.0" departLane="random" departSpeed="10" />
    <vehicle id="N_E_93" type="standard_car" route="N_E" depart="107.0" departLane="random" departSpeed="10" />
    <vehicle id="N_S_94" type="standard_car" route="N_S" depart="112.0" departLane="random" departSpeed="10" />
    <vehicle id="S_N_95" type="standard_car" route="S_N" depart="114.0" departLane="random" departSpeed="10" />
    <vehicle id="E_S_96" type="standard_car" route="E_S" depart="116.0" departLane="random" departSpeed="10" />
    <vehicle id="N_S_97" type="standard_car" route="N_S" depart="125.0" departLane="random" departSpeed="10" />
    <vehicle id="W_E_98" type="standard_car" route="W_E" depart="125.0" departLane="random" departSpeed="10" />
    <vehicle id="W_E_99" type="standard_car" route="W_E" depart="135.0" departLane="random" departSpeed="10" />
</routes>
