<routes>
            <vType accel="1.0" decel="4.5" id="standard_car" length="5.0" minGap="2.5" maxSpeed="25" sigma="0.5" />

            <route id="E_N_01" edges="East2TrafficLight_01 TrafficLight2North_01"/>
            <route id="E_S_01" edges="East2TrafficLight_01 TrafficLight2South_01"/>
            <route id="E_W_N_01" edges="East2TrafficLight_01 East2TrafficLight_02 TrafficLight2North_02"/>
            <route id="E_W_S_01" edges="East2TrafficLight_01 East2TrafficLight_02 TrafficLight2South_02"/>
            <route id="E_W_W_01" edges="East2TrafficLight_01 East2TrafficLight_02 TrafficLight2West_02"/>

            <route id="S_N_01" edges="South2TrafficLight_01 TrafficLight2North_01"/>
            <route id="S_E_01" edges="South2TrafficLight_01 TrafficLight2East_01"/>
            <route id="S_W_N_01" edges="South2TrafficLight_01 East2TrafficLight_02 TrafficLight2North_02"/>
            <route id="S_W_S_01" edges="South2TrafficLight_01 East2TrafficLight_02 TrafficLight2South_02"/>
            <route id="S_W_W_01" edges="South2TrafficLight_01 East2TrafficLight_02 TrafficLight2West_02"/>

            <route id="N_E_01" edges="North2TrafficLight_01 TrafficLight2East_01"/>
            <route id="N_S_01" edges="North2TrafficLight_01 TrafficLight2South_01"/>
            <route id="N_W_N_01" edges="North2TrafficLight_01 East2TrafficLight_02 TrafficLight2North_02"/>
            <route id="N_W_S_01" edges="North2TrafficLight_01 East2TrafficLight_02 TrafficLight2South_02"/>
            <route id="N_W_W_01" edges="North2TrafficLight_01 East2TrafficLight_02 TrafficLight2West_02"/>


            <route id="W_N_02" edges="West2TrafficLight_02 TrafficLight2North_02"/>
            <route id="W_S_02" edges="West2TrafficLight_02 TrafficLight2South_02"/>
            <route id="W_E_N_02" edges="West2TrafficLight_02 West2TrafficLight_01 TrafficLight2North_01"/>
            <route id="W_E_S_02" edges="West2TrafficLight_02 West2TrafficLight_01 TrafficLight2South_01"/>
            <route id="W_E_E_02" edges="West2TrafficLight_02 West2TrafficLight_01 TrafficLight2East_01"/>

            <route id="S_W_02" edges="South2TrafficLight_02 TrafficLight2West_02"/>
            <route id="S_N_02" edges="South2TrafficLight_02 TrafficLight2North_02"/>
            <route id="S_E_N_02" edges="South2TrafficLight_02 West2TrafficLight_01 TrafficLight2North_01"/>
            <route id="S_E_S_02" edges="South2TrafficLight_02 West2TrafficLight_01 TrafficLight2South_01"/>
            <route id="S_E_E_02" edges="South2TrafficLight_02 West2TrafficLight_01 TrafficLight2East_01"/>

            <route id="N_W_02" edges="North2TrafficLight_02 TrafficLight2West_02"/>
            <route id="N_S_02" edges="North2TrafficLight_02 TrafficLight2South_02"/>
            <route id="N_E_N_02" edges="North2TrafficLight_02 West2TrafficLight_01 TrafficLight2North_01"/>
            <route id="N_E_S_02" edges="North2TrafficLight_02 West2TrafficLight_01 TrafficLight2South_01"/>
            <route id="N_E_E_02" edges="North2TrafficLight_02 West2TrafficLight_01 TrafficLight2East_01"/>

            
    <vehicle id="S_N_02_0" type="standard_car" route="S_N_02" depart="42.0" departLane="random" departSpeed="10" />
    <vehicle id="S_W_02_1" type="standard_car" route="S_W_02" depart="46.0" departLane="random" departSpeed="10" />
    <vehicle id="W_N_02_2" type="standard_car" route="W_N_02" depart="67.0" departLane="random" departSpeed="10" />
    <vehicle id="S_W_N_01_3" type="standard_car" route="S_W_N_01" depart="82.0" departLane="random" departSpeed="10" />
    <vehicle id="S_N_02_4" type="standard_car" route="S_N_02" depart="94.0" departLane="random" departSpeed="10" />
    <vehicle id="W_E_N_02_5" type="standard_car" route="W_E_N_02" depart="112.0" departLane="random" departSpeed="10" />
    <vehicle id="N_S_02_6" type="standard_car" route="N_S_02" depart="123.0" departLane="random" departSpeed="10" />
    <vehicle id="W_E_E_02_7" type="standard_car" route="W_E_E_02" depart="123.0" departLane="random" departSpeed="10" />
    <vehicle id="N_S_02_8" type="standard_car" route="N_S_02" depart="129.0" departLane="random" departSpeed="10" />
    <vehicle id="W_E_E_02_9" type="standard_car" route="W_E_E_02" depart="131.0" departLane="random" departSpeed="10" />
    <vehicle id="E_N_01_10" type="standard_car" route="E_N_01" depart="160.0" departLane="random" departSpeed="10" />
    <vehicle id="W_E_E_02_11" type="standard_car" route="W_E_E_02" depart="181.0" departLane="random" departSpeed="10" />
    <vehicle id="S_E_E_02_12" type="standard_car" route="S_E_E_02" depart="192.0" departLane="random" departSpeed="10" />
    <vehicle id="S_N_02_13" type="standard_car" route="S_N_02" depart="193.0" departLane="random" departSpeed="10" />
    <vehicle id="S_W_N_01_14" type="standard_car" route="S_W_N_01" depart="195.0" departLane="random" departSpeed="10" />
    <vehicle id="W_E_S_02_15" type="standard_car" route="W_E_S_02" depart="198.0" departLane="random" departSpeed="10" />
    <vehicle id="N_W_N_01_16" type="standard_car" route="N_W_N_01" depart="199.0" departLane="random" departSpeed="10" />
    <vehicle id="N_S_01_17" type="standard_car" route="N_S_01" depart="208.0" departLane="random" departSpeed="10" />
    <vehicle id="N_E_S_02_18" type="standard_car" route="N_E_S_02" depart="210.0" departLane="random" departSpeed="10" />
    <vehicle id="S_N_01_19" type="standard_car" route="S_N_01" depart="216.0" departLane="random" departSpeed="10" />
    <vehicle id="S_N_01_20" type="standard_car" route="S_N_01" depart="226.0" departLane="random" departSpeed="10" />
    <vehicle id="W_E_E_02_21" type="standard_car" route="W_E_E_02" depart="231.0" departLane="random" departSpeed="10" />
    <vehicle id="S_N_01_22" type="standard_car" route="S_N_01" depart="232.0" departLane="random" departSpeed="10" />
    <vehicle id="S_W_S_01_23" type="standard_car" route="S_W_S_01" depart="235.0" departLane="random" departSpeed="10" />
    <vehicle id="E_W_W_01_24" type="standard_car" route="E_W_W_01" depart="236.0" departLane="random" departSpeed="10" />
    <vehicle id="N_S_02_25" type="standard_car" route="N_S_02" depart="243.0" departLane="random" departSpeed="10" />
    <vehicle id="E_W_N_01_26" type="standard_car" route="E_W_N_01" depart="246.0" departLane="random" departSpeed="10" />
    <vehicle id="N_S_01_27" type="standard_car" route="N_S_01" depart="248.0" departLane="random" departSpeed="10" />
    <vehicle id="S_N_01_28" type="standard_car" route="S_N_01" depart="250.0" departLane="random" departSpeed="10" />
    <vehicle id="S_E_N_02_29" type="standard_car" route="S_E_N_02" depart="251.0" departLane="random" departSpeed="10" />
    <vehicle id="N_S_01_30" type="standard_car" route="N_S_01" depart="252.0" departLane="random" departSpeed="10" />
    <vehicle id="E_W_S_01_31" type="standard_car" route="E_W_S_01" depart="257.0" departLane="random" departSpeed="10" />
    <vehicle id="N_S_01_32" type="standard_car" route="N_S_01" depart="257.0" departLane="random" departSpeed="10" />
    <vehicle id="E_W_S_01_33" type="standard_car" route="E_W_S_01" depart="260.0" departLane="random" departSpeed="10" />
    <vehicle id="N_S_02_34" type="standard_car" route="N_S_02" depart="262.0" departLane="random" departSpeed="10" />
    <vehicle id="N_E_N_02_35" type="standard_car" route="N_E_N_02" depart="264.0" departLane="random" departSpeed="10" />
    <vehicle id="W_E_E_02_36" type="standard_car" route="W_E_E_02" depart="282.0" departLane="random" departSpeed="10" />
    <vehicle id="S_N_02_37" type="standard_car" route="S_N_02" depart="282.0" departLane="random" departSpeed="10" />
    <vehicle id="E_S_01_38" type="standard_car" route="E_S_01" depart="284.0" departLane="random" departSpeed="10" />
    <vehicle id="S_W_N_01_39" type="standard_car" route="S_W_N_01" depart="285.0" departLane="random" departSpeed="10" />
    <vehicle id="S_E_01_40" type="standard_car" route="S_E_01" depart="285.0" departLane="random" departSpeed="10" />
    <vehicle id="S_N_02_41" type="standard_car" route="S_N_02" depart="290.0" departLane="random" departSpeed="10" />
    <vehicle id="N_S_02_42" type="standard_car" route="N_S_02" depart="309.0" departLane="random" departSpeed="10" />
    <vehicle id="S_N_01_43" type="standard_car" route="S_N_01" depart="310.0" departLane="random" departSpeed="10" />
    <vehicle id="W_E_E_02_44" type="standard_car" route="W_E_E_02" depart="314.0" departLane="random" departSpeed="10" />
    <vehicle id="E_W_W_01_45" type="standard_car" route="E_W_W_01" depart="315.0" departLane="random" departSpeed="10" />
    <vehicle id="W_E_N_02_46" type="standard_car" route="W_E_N_02" depart="315.0" departLane="random" departSpeed="10" />
    <vehicle id="S_N_01_47" type="standard_car" route="S_N_01" depart="318.0" departLane="random" departSpeed="10" />
    <vehicle id="E_W_W_01_48" type="standard_car" route="E_W_W_01" depart="324.0" departLane="random" departSpeed="10" />
    <vehicle id="W_E_E_02_49" type="standard_car" route="W_E_E_02" depart="330.0" departLane="random" departSpeed="10" />
    <vehicle id="N_S_02_50" type="standard_car" route="N_S_02" depart="331.0" departLane="random" departSpeed="10" />
    <vehicle id="N_S_02_51" type="standard_car" route="N_S_02" depart="341.0" departLane="random" departSpeed="10" />
    <vehicle id="S_N_02_52" type="standard_car" route="S_N_02" depart="342.0" departLane="random" departSpeed="10" />
    <vehicle id="W_E_S_02_53" type="standard_car" route="W_E_S_02" depart="343.0" departLane="random" departSpeed="10" />
    <vehicle id="N_W_N_01_54" type="standard_car" route="N_W_N_01" depart="345.0" departLane="random" departSpeed="10" />
    <vehicle id="N_S_01_55" type="standard_car" route="N_S_01" depart="348.0" departLane="random" departSpeed="10" />
    <vehicle id="S_E_E_02_56" type="standard_car" route="S_E_E_02" depart="350.0" departLane="random" departSpeed="10" />
    <vehicle id="W_E_S_02_57" type="standard_car" route="W_E_S_02" depart="357.0" departLane="random" departSpeed="10" />
    <vehicle id="S_N_02_58" type="standard_car" route="S_N_02" depart="360.0" departLane="random" departSpeed="10" />
    <vehicle id="E_W_W_01_59" type="standard_car" route="E_W_W_01" depart="362.0" departLane="random" departSpeed="10" />
    <vehicle id="N_S_01_60" type="standard_car" route="N_S_01" depart="364.0" departLane="random" departSpeed="10" />
    <vehicle id="W_E_N_02_61" type="standard_car" route="W_E_N_02" depart="369.0" departLane="random" departSpeed="10" />
    <vehicle id="E_W_W_01_62" type="standard_car" route="E_W_W_01" depart="377.0" departLane="random" departSpeed="10" />
    <vehicle id="E_W_N_01_63" type="standard_car" route="E_W_N_01" depart="377.0" departLane="random" departSpeed="10" />
    <vehicle id="S_N_02_64" type="standard_car" route="S_N_02" depart="382.0" departLane="random" departSpeed="10" />
    <vehicle id="S_N_01_65" type="standard_car" route="S_N_01" depart="384.0" departLane="random" departSpeed="10" />
    <vehicle id="E_W_W_01_66" type="standard_car" route="E_W_W_01" depart="385.0" departLane="random" departSpeed="10" />
    <vehicle id="S_N_02_67" type="standard_car" route="S_N_02" depart="391.0" departLane="random" departSpeed="10" />
    <vehicle id="S_E_S_02_68" type="standard_car" route="S_E_S_02" depart="394.0" departLane="random" departSpeed="10" />
    <vehicle id="S_E_E_02_69" type="standard_car" route="S_E_E_02" depart="402.0" departLane="random" departSpeed="10" />
    <vehicle id="N_S_01_70" type="standard_car" route="N_S_01" depart="405.0" departLane="random" departSpeed="10" />
    <vehicle id="N_W_N_01_71" type="standard_car" route="N_W_N_01" depart="412.0" departLane="random" departSpeed="10" />
    <vehicle id="N_W_W_01_72" type="standard_car" route="N_W_W_01" depart="412.0" departLane="random" departSpeed="10" />
    <vehicle id="E_W_W_01_73" type="standard_car" route="E_W_W_01" depart="412.0" departLane="random" departSpeed="10" />
    <vehicle id="N_S_02_74" type="standard_car" route="N_S_02" depart="422.0" departLane="random" departSpeed="10" />
    <vehicle id="S_N_02_75" type="standard_car" route="S_N_02" depart="423.0" departLane="random" departSpeed="10" />
    <vehicle id="W_N_02_76" type="standard_car" route="W_N_02" depart="425.0" departLane="random" departSpeed="10" />
    <vehicle id="E_S_01_77" type="standard_car" route="E_S_01" depart="430.0" departLane="random" departSpeed="10" />
    <vehicle id="S_N_01_78" type="standard_car" route="S_N_01" depart="435.0" departLane="random" departSpeed="10" />
    <vehicle id="S_N_02_79" type="standard_car" route="S_N_02" depart="436.0" departLane="random" departSpeed="10" />
    <vehicle id="N_E_01_80" type="standard_car" route="N_E_01" depart="440.0" departLane="random" departSpeed="10" />
    <vehicle id="N_S_01_81" type="standard_car" route="N_S_01" depart="441.0" departLane="random" departSpeed="10" />
    <vehicle id="W_E_E_02_82" type="standard_car" route="W_E_E_02" depart="442.0" departLane="random" departSpeed="10" />
    <vehicle id="N_S_01_83" type="standard_car" route="N_S_01" depart="445.0" departLane="random" departSpeed="10" />
    <vehicle id="S_W_02_84" type="standard_car" route="S_W_02" depart="448.0" departLane="random" departSpeed="10" />
    <vehicle id="N_S_01_85" type="standard_car" route="N_S_01" depart="449.0" departLane="random" departSpeed="10" />
    <vehicle id="N_S_01_86" type="standard_car" route="N_S_01" depart="452.0" departLane="random" departSpeed="10" />
    <vehicle id="S_N_01_87" type="standard_car" route="S_N_01" depart="458.0" departLane="random" departSpeed="10" />
    <vehicle id="W_E_E_02_88" type="standard_car" route="W_E_E_02" depart="458.0" departLane="random" departSpeed="10" />
    <vehicle id="S_N_02_89" type="standard_car" route="S_N_02" depart="458.0" departLane="random" departSpeed="10" />
    <vehicle id="E_W_W_01_90" type="standard_car" route="E_W_W_01" depart="460.0" departLane="random" departSpeed="10" />
    <vehicle id="S_N_02_91" type="standard_car" route="S_N_02" depart="461.0" departLane="random" departSpeed="10" />
    <vehicle id="N_W_W_01_92" type="standard_car" route="N_W_W_01" depart="463.0" departLane="random" departSpeed="10" />
    <vehicle id="N_S_01_93" type="standard_car" route="N_S_01" depart="463.0" departLane="random" departSpeed="10" />
    <vehicle id="N_E_E_02_94" type="standard_car" route="N_E_E_02" depart="467.0" departLane="random" departSpeed="10" />
    <vehicle id="N_E_E_02_95" type="standard_car" route="N_E_E_02" depart="468.0" departLane="random" departSpeed="10" />
    <vehicle id="N_W_N_01_96" type="standard_car" route="N_W_N_01" depart="469.0" departLane="random" departSpeed="10" />
    <vehicle id="W_E_E_02_97" type="standard_car" route="W_E_E_02" depart="471.0" departLane="random" departSpeed="10" />
    <vehicle id="W_E_E_02_98" type="standard_car" route="W_E_E_02" depart="471.0" departLane="random" departSpeed="10" />
    <vehicle id="S_N_02_99" type="standard_car" route="S_N_02" depart="475.0" departLane="random" departSpeed="10" />
    <vehicle id="N_S_01_100" type="standard_car" route="N_S_01" depart="478.0" departLane="random" departSpeed="10" />
    <vehicle id="E_W_W_01_101" type="standard_car" route="E_W_W_01" depart="478.0" departLane="random" departSpeed="10" />
    <vehicle id="N_S_01_102" type="standard_car" route="N_S_01" depart="481.0" departLane="random" departSpeed="10" />
    <vehicle id="N_S_02_103" type="standard_car" route="N_S_02" depart="482.0" departLane="random" departSpeed="10" />
    <vehicle id="S_N_02_104" type="standard_car" route="S_N_02" depart="482.0" departLane="random" departSpeed="10" />
    <vehicle id="N_S_02_105" type="standard_car" route="N_S_02" depart="485.0" departLane="random" departSpeed="10" />
    <vehicle id="S_N_02_106" type="standard_car" route="S_N_02" depart="488.0" departLane="random" departSpeed="10" />
    <vehicle id="N_W_W_01_107" type="standard_car" route="N_W_W_01" depart="489.0" departLane="random" departSpeed="10" />
    <vehicle id="S_W_02_108" type="standard_car" route="S_W_02" depart="504.0" departLane="random" departSpeed="10" />
    <vehicle id="S_N_01_109" type="standard_car" route="S_N_01" depart="504.0" departLane="random" departSpeed="10" />
    <vehicle id="E_W_N_01_110" type="standard_car" route="E_W_N_01" depart="508.0" departLane="random" departSpeed="10" />
    <vehicle id="N_S_02_111" type="standard_car" route="N_S_02" depart="509.0" departLane="random" departSpeed="10" />
    <vehicle id="E_W_W_01_112" type="standard_car" route="E_W_W_01" depart="514.0" departLane="random" departSpeed="10" />
    <vehicle id="N_S_02_113" type="standard_car" route="N_S_02" depart="518.0" departLane="random" departSpeed="10" />
    <vehicle id="W_E_E_02_114" type="standard_car" route="W_E_E_02" depart="522.0" departLane="random" departSpeed="10" />
    <vehicle id="W_E_E_02_115" type="standard_car" route="W_E_E_02" depart="523.0" departLane="random" departSpeed="10" />
    <vehicle id="W_E_E_02_116" type="standard_car" route="W_E_E_02" depart="524.0" departLane="random" departSpeed="10" />
    <vehicle id="N_S_02_117" type="standard_car" route="N_S_02" depart="531.0" departLane="random" departSpeed="10" />
    <vehicle id="S_N_01_118" type="standard_car" route="S_N_01" depart="531.0" departLane="random" departSpeed="10" />
    <vehicle id="S_W_02_119" type="standard_car" route="S_W_02" depart="532.0" departLane="random" departSpeed="10" />
    <vehicle id="E_W_W_01_120" type="standard_car" route="E_W_W_01" depart="538.0" departLane="random" departSpeed="10" />
    <vehicle id="W_E_E_02_121" type="standard_car" route="W_E_E_02" depart="539.0" departLane="random" departSpeed="10" />
    <vehicle id="N_W_02_122" type="standard_car" route="N_W_02" depart="543.0" departLane="random" departSpeed="10" />
    <vehicle id="N_S_02_123" type="standard_car" route="N_S_02" depart="551.0" departLane="random" departSpeed="10" />
    <vehicle id="E_W_W_01_124" type="standard_car" route="E_W_W_01" depart="552.0" departLane="random" departSpeed="10" />
    <vehicle id="S_N_01_125" type="standard_car" route="S_N_01" depart="556.0" departLane="random" departSpeed="10" />
    <vehicle id="N_S_02_126" type="standard_car" route="N_S_02" depart="565.0" departLane="random" departSpeed="10" />
    <vehicle id="S_N_02_127" type="standard_car" route="S_N_02" depart="572.0" departLane="random" departSpeed="10" />
    <vehicle id="N_S_02_128" type="standard_car" route="N_S_02" depart="573.0" departLane="random" departSpeed="10" />
    <vehicle id="E_W_W_01_129" type="standard_car" route="E_W_W_01" depart="574.0" departLane="random" departSpeed="10" />
    <vehicle id="E_W_W_01_130" type="standard_car" route="E_W_W_01" depart="575.0" departLane="random" departSpeed="10" />
    <vehicle id="S_N_02_131" type="standard_car" route="S_N_02" depart="576.0" departLane="random" departSpeed="10" />
    <vehicle id="W_E_E_02_132" type="standard_car" route="W_E_E_02" depart="576.0" departLane="random" departSpeed="10" />
    <vehicle id="W_E_E_02_133" type="standard_car" route="W_E_E_02" depart="577.0" departLane="random" departSpeed="10" />
    <vehicle id="S_W_S_01_134" type="standard_car" route="S_W_S_01" depart="577.0" departLane="random" departSpeed="10" />
    <vehicle id="W_N_02_135" type="standard_car" route="W_N_02" depart="578.0" departLane="random" departSpeed="10" />
    <vehicle id="S_W_02_136" type="standard_car" route="S_W_02" depart="580.0" departLane="random" departSpeed="10" />
    <vehicle id="N_W_S_01_137" type="standard_car" route="N_W_S_01" depart="583.0" departLane="random" departSpeed="10" />
    <vehicle id="N_S_02_138" type="standard_car" route="N_S_02" depart="583.0" departLane="random" departSpeed="10" />
    <vehicle id="N_W_S_01_139" type="standard_car" route="N_W_S_01" depart="584.0" departLane="random" departSpeed="10" />
    <vehicle id="N_S_01_140" type="standard_car" route="N_S_01" depart="585.0" departLane="random" departSpeed="10" />
    <vehicle id="W_E_E_02_141" type="standard_car" route="W_E_E_02" depart="585.0" departLane="random" departSpeed="10" />
    <vehicle id="N_S_02_142" type="standard_car" route="N_S_02" depart="585.0" departLane="random" departSpeed="10" />
    <vehicle id="S_W_02_143" type="standard_car" route="S_W_02" depart="585.0" departLane="random" departSpeed="10" />
    <vehicle id="S_E_S_02_144" type="standard_car" route="S_E_S_02" depart="588.0" departLane="random" departSpeed="10" />
    <vehicle id="N_S_02_145" type="standard_car" route="N_S_02" depart="591.0" departLane="random" departSpeed="10" />
    <vehicle id="S_N_01_146" type="standard_car" route="S_N_01" depart="591.0" departLane="random" departSpeed="10" />
    <vehicle id="N_S_01_147" type="standard_car" route="N_S_01" depart="592.0" departLane="random" departSpeed="10" />
    <vehicle id="N_W_W_01_148" type="standard_car" route="N_W_W_01" depart="592.0" departLane="random" departSpeed="10" />
    <vehicle id="E_W_W_01_149" type="standard_car" route="E_W_W_01" depart="594.0" departLane="random" departSpeed="10" />
    <vehicle id="S_W_02_150" type="standard_car" route="S_W_02" depart="595.0" departLane="random" departSpeed="10" />
    <vehicle id="W_E_E_02_151" type="standard_car" route="W_E_E_02" depart="596.0" departLane="random" departSpeed="10" />
    <vehicle id="S_N_01_152" type="standard_car" route="S_N_01" depart="598.0" departLane="random" departSpeed="10" />
    <vehicle id="S_N_01_153" type="standard_car" route="S_N_01" depart="599.0" departLane="random" departSpeed="10" />
    <vehicle id="E_S_01_154" type="standard_car" route="E_S_01" depart="602.0" departLane="random" departSpeed="10" />
    <vehicle id="N_S_02_155" type="standard_car" route="N_S_02" depart="606.0" departLane="random" departSpeed="10" />
    <vehicle id="E_W_N_01_156" type="standard_car" route="E_W_N_01" depart="606.0" departLane="random" departSpeed="10" />
    <vehicle id="S_N_01_157" type="standard_car" route="S_N_01" depart="607.0" departLane="random" departSpeed="10" />
    <vehicle id="S_N_02_158" type="standard_car" route="S_N_02" depart="607.0" departLane="random" departSpeed="10" />
    <vehicle id="N_S_02_159" type="standard_car" route="N_S_02" depart="609.0" departLane="random" departSpeed="10" />
    <vehicle id="S_N_01_160" type="standard_car" route="S_N_01" depart="611.0" departLane="random" departSpeed="10" />
    <vehicle id="N_S_02_161" type="standard_car" route="N_S_02" depart="614.0" departLane="random" departSpeed="10" />
    <vehicle id="S_W_S_01_162" type="standard_car" route="S_W_S_01" depart="616.0" departLane="random" departSpeed="10" />
    <vehicle id="N_W_02_163" type="standard_car" route="N_W_02" depart="616.0" departLane="random" departSpeed="10" />
    <vehicle id="N_S_02_164" type="standard_car" route="N_S_02" depart="616.0" departLane="random" departSpeed="10" />
    <vehicle id="E_S_01_165" type="standard_car" route="E_S_01" depart="619.0" departLane="random" departSpeed="10" />
    <vehicle id="S_W_S_01_166" type="standard_car" route="S_W_S_01" depart="622.0" departLane="random" departSpeed="10" />
    <vehicle id="S_N_01_167" type="standard_car" route="S_N_01" depart="631.0" departLane="random" departSpeed="10" />
    <vehicle id="S_N_02_168" type="standard_car" route="S_N_02" depart="631.0" departLane="random" departSpeed="10" />
    <vehicle id="N_S_01_169" type="standard_car" route="N_S_01" depart="631.0" departLane="random" departSpeed="10" />
    <vehicle id="S_N_02_170" type="standard_car" route="S_N_02" depart="632.0" departLane="random" departSpeed="10" />
    <vehicle id="S_N_02_171" type="standard_car" route="S_N_02" depart="632.0" departLane="random" departSpeed="10" />
    <vehicle id="N_S_01_172" type="standard_car" route="N_S_01" depart="634.0" departLane="random" departSpeed="10" />
    <vehicle id="S_N_02_173" type="standard_car" route="S_N_02" depart="636.0" departLane="random" departSpeed="10" />
    <vehicle id="E_W_W_01_174" type="standard_car" route="E_W_W_01" depart="636.0" departLane="random" departSpeed="10" />
    <vehicle id="S_W_N_01_175" type="standard_car" route="S_W_N_01" depart="636.0" departLane="random" departSpeed="10" />
    <vehicle id="N_S_02_176" type="standard_car" route="N_S_02" depart="636.0" departLane="random" departSpeed="10" />
    <vehicle id="S_W_S_01_177" type="standard_car" route="S_W_S_01" depart="636.0" departLane="random" departSpeed="10" />
    <vehicle id="N_S_01_178" type="standard_car" route="N_S_01" depart="639.0" departLane="random" departSpeed="10" />
    <vehicle id="E_W_W_01_179" type="standard_car" route="E_W_W_01" depart="640.0" departLane="random" departSpeed="10" />
    <vehicle id="S_N_01_180" type="standard_car" route="S_N_01" depart="640.0" departLane="random" departSpeed="10" />
    <vehicle id="S_W_W_01_181" type="standard_car" route="S_W_W_01" depart="640.0" departLane="random" departSpeed="10" />
    <vehicle id="S_N_02_182" type="standard_car" route="S_N_02" depart="644.0" departLane="random" departSpeed="10" />
    <vehicle id="S_E_01_183" type="standard_car" route="S_E_01" depart="644.0" departLane="random" departSpeed="10" />
    <vehicle id="N_S_02_184" type="standard_car" route="N_S_02" depart="644.0" departLane="random" departSpeed="10" />
    <vehicle id="S_W_02_185" type="standard_car" route="S_W_02" depart="654.0" departLane="random" departSpeed="10" />
    <vehicle id="W_E_E_02_186" type="standard_car" route="W_E_E_02" depart="664.0" departLane="random" departSpeed="10" />
    <vehicle id="E_W_W_01_187" type="standard_car" route="E_W_W_01" depart="666.0" departLane="random" departSpeed="10" />
    <vehicle id="N_S_01_188" type="standard_car" route="N_S_01" depart="669.0" departLane="random" departSpeed="10" />
    <vehicle id="S_N_02_189" type="standard_car" route="S_N_02" depart="669.0" departLane="random" departSpeed="10" />
    <vehicle id="N_S_01_190" type="standard_car" route="N_S_01" depart="670.0" departLane="random" departSpeed="10" />
    <vehicle id="S_N_01_191" type="standard_car" route="S_N_01" depart="675.0" departLane="random" departSpeed="10" />
    <vehicle id="N_W_W_01_192" type="standard_car" route="N_W_W_01" depart="675.0" departLane="random" departSpeed="10" />
    <vehicle id="S_N_02_193" type="standard_car" route="S_N_02" depart="676.0" departLane="random" departSpeed="10" />
    <vehicle id="S_N_01_194" type="standard_car" route="S_N_01" depart="677.0" departLane="random" departSpeed="10" />
    <vehicle id="S_W_02_195" type="standard_car" route="S_W_02" depart="677.0" departLane="random" departSpeed="10" />
    <vehicle id="N_S_01_196" type="standard_car" route="N_S_01" depart="679.0" departLane="random" departSpeed="10" />
    <vehicle id="N_S_01_197" type="standard_car" route="N_S_01" depart="681.0" departLane="random" departSpeed="10" />
    <vehicle id="W_E_E_02_198" type="standard_car" route="W_E_E_02" depart="681.0" departLane="random" departSpeed="10" />
    <vehicle id="S_N_01_199" type="standard_car" route="S_N_01" depart="687.0" departLane="random" departSpeed="10" />
    <vehicle id="W_E_E_02_200" type="standard_car" route="W_E_E_02" depart="687.0" departLane="random" departSpeed="10" />
    <vehicle id="S_N_02_201" type="standard_car" route="S_N_02" depart="691.0" departLane="random" departSpeed="10" />
    <vehicle id="S_N_02_202" type="standard_car" route="S_N_02" depart="694.0" departLane="random" departSpeed="10" />
    <vehicle id="W_E_E_02_203" type="standard_car" route="W_E_E_02" depart="697.0" departLane="random" departSpeed="10" />
    <vehicle id="N_S_02_204" type="standard_car" route="N_S_02" depart="698.0" departLane="random" departSpeed="10" />
    <vehicle id="S_N_02_205" type="standard_car" route="S_N_02" depart="700.0" departLane="random" departSpeed="10" />
    <vehicle id="E_W_W_01_206" type="standard_car" route="E_W_W_01" depart="700.0" departLane="random" departSpeed="10" />
    <vehicle id="N_S_02_207" type="standard_car" route="N_S_02" depart="702.0" departLane="random" departSpeed="10" />
    <vehicle id="E_W_N_01_208" type="standard_car" route="E_W_N_01" depart="703.0" departLane="random" departSpeed="10" />
    <vehicle id="W_E_E_02_209" type="standard_car" route="W_E_E_02" depart="704.0" departLane="random" departSpeed="10" />
    <vehicle id="S_N_02_210" type="standard_car" route="S_N_02" depart="708.0" departLane="random" departSpeed="10" />
    <vehicle id="S_N_01_211" type="standard_car" route="S_N_01" depart="712.0" departLane="random" departSpeed="10" />
    <vehicle id="N_S_01_212" type="standard_car" route="N_S_01" depart="718.0" departLane="random" departSpeed="10" />
    <vehicle id="S_N_01_213" type="standard_car" route="S_N_01" depart="719.0" departLane="random" departSpeed="10" />
    <vehicle id="S_N_01_214" type="standard_car" route="S_N_01" depart="720.0" departLane="random" departSpeed="10" />
    <vehicle id="S_N_01_215" type="standard_car" route="S_N_01" depart="720.0" departLane="random" departSpeed="10" />
    <vehicle id="S_N_02_216" type="standard_car" route="S_N_02" depart="720.0" departLane="random" departSpeed="10" />
    <vehicle id="E_W_W_01_217" type="standard_car" route="E_W_W_01" depart="721.0" departLane="random" departSpeed="10" />
    <vehicle id="N_S_02_218" type="standard_car" route="N_S_02" depart="721.0" departLane="random" departSpeed="10" />
    <vehicle id="S_N_02_219" type="standard_car" route="S_N_02" depart="724.0" departLane="random" departSpeed="10" />
    <vehicle id="W_N_02_220" type="standard_car" route="W_N_02" depart="728.0" departLane="random" departSpeed="10" />
    <vehicle id="E_W_W_01_221" type="standard_car" route="E_W_W_01" depart="729.0" departLane="random" departSpeed="10" />
    <vehicle id="E_W_W_01_222" type="standard_car" route="E_W_W_01" depart="731.0" departLane="random" departSpeed="10" />
    <vehicle id="E_W_W_01_223" type="standard_car" route="E_W_W_01" depart="732.0" departLane="random" departSpeed="10" />