<?xml version="1.0" encoding="UTF-8"?>

<!-- generated on 12/09/20 17:55:24 by Eclipse SUMO netedit Version 1.6.0
<configuration xmlns:xsi="http://www.w3.org/2001/XMLSchema-instance" xsi:noNamespaceSchemaLocation="http://sumo.dlr.de/xsd/netconvertConfiguration.xsd">

    <input>
        <sumo-net-file value="C:\Users\CCarta\Desktop\doppio_incrocio.net.xml"/>
    </input>

    <output>
        <output-file value="C:\Users\CCarta\Desktop\doppio_incrocio.net.xml"/>
    </output>

    <processing>
        <geometry.min-radius.fix.railways value="false"/>
        <geometry.max-grade.fix value="false"/>
        <offset.disable-normalization value="true"/>
        <lefthand value="false"/>
    </processing>

    <junctions>
        <no-turnarounds value="true"/>
        <junctions.corner-detail value="5"/>
        <junctions.limit-turn-speed value="5.5"/>
        <rectangular-lane-cut value="false"/>
    </junctions>

    <pedestrian>
        <walkingareas value="false"/>
    </pedestrian>

    <report>
        <aggregate-warnings value="5"/>
    </report>

</configuration>
-->

<net version="1.6" junctionCornerDetail="5" limitTurnSpeed="5.50" xmlns:xsi="http://www.w3.org/2001/XMLSchema-instance" xsi:noNamespaceSchemaLocation="http://sumo.dlr.de/xsd/net_file.xsd">

    <location netOffset="0.00,0.00" convBoundary="-1000.00,-900.00,1400.00,700.00" origBoundary="-10000000000.00,-10000000000.00,10000000000.00,10000000000.00" projParameter="!"/>

    <edge id=":TrafficLight_01_0" function="internal">
        <lane id=":TrafficLight_01_0_0" index="0" speed="6.51" length="9.03" shape="-211.20,-83.20 -211.55,-85.65 -212.60,-87.40 -214.35,-88.45 -216.80,-88.80"/>
    </edge>
    <edge id=":TrafficLight_01_1" function="internal">
        <lane id=":TrafficLight_01_1_0" index="0" speed="13.89" length="33.60" shape="-211.20,-83.20 -211.20,-116.80"/>
        <lane id=":TrafficLight_01_1_1" index="1" speed="13.89" length="33.60" shape="-208.00,-83.20 -208.00,-116.80"/>
        <lane id=":TrafficLight_01_1_2" index="2" speed="13.89" length="33.60" shape="-204.80,-83.20 -204.80,-116.80"/>
    </edge>
    <edge id=":TrafficLight_01_4" function="internal">
        <lane id=":TrafficLight_01_4_0" index="0" speed="11.36" length="29.67" shape="-201.60,-83.20 -200.45,-91.25 -197.00,-97.00 -191.25,-100.45 -183.20,-101.60"/>
    </edge>
    <edge id=":TrafficLight_01_5" function="internal">
        <lane id=":TrafficLight_01_5_0" index="0" speed="6.51" length="9.03" shape="-183.20,-88.80 -185.65,-88.45 -187.40,-87.40 -188.45,-85.65 -188.80,-83.20"/>
    </edge>
    <edge id=":TrafficLight_01_6" function="internal">
        <lane id=":TrafficLight_01_6_0" index="0" speed="13.89" length="33.60" shape="-183.20,-88.80 -216.80,-88.80"/>
        <lane id=":TrafficLight_01_6_1" index="1" speed="13.89" length="33.60" shape="-183.20,-92.00 -216.80,-92.00"/>
        <lane id=":TrafficLight_01_6_2" index="2" speed="13.89" length="33.60" shape="-183.20,-95.20 -216.80,-95.20"/>
    </edge>
    <edge id=":TrafficLight_01_9" function="internal">
        <lane id=":TrafficLight_01_9_0" index="0" speed="11.36" length="29.67" shape="-183.20,-98.40 -191.25,-99.55 -197.00,-103.00 -200.45,-108.75 -201.60,-116.80"/>
    </edge>
    <edge id=":TrafficLight_01_10" function="internal">
        <lane id=":TrafficLight_01_10_0" index="0" speed="6.51" length="9.03" shape="-188.80,-116.80 -188.45,-114.35 -187.40,-112.60 -185.65,-111.55 -183.20,-111.20"/>
    </edge>
    <edge id=":TrafficLight_01_11" function="internal">
        <lane id=":TrafficLight_01_11_0" index="0" speed="13.89" length="33.60" shape="-188.80,-116.80 -188.80,-83.20"/>
        <lane id=":TrafficLight_01_11_1" index="1" speed="13.89" length="33.60" shape="-192.00,-116.80 -192.00,-83.20"/>
        <lane id=":TrafficLight_01_11_2" index="2" speed="13.89" length="33.60" shape="-195.20,-116.80 -195.20,-83.20"/>
    </edge>
    <edge id=":TrafficLight_01_14" function="internal">
        <lane id=":TrafficLight_01_14_0" index="0" speed="11.36" length="29.67" shape="-198.40,-116.80 -199.55,-108.75 -203.00,-103.00 -208.75,-99.55 -216.80,-98.40"/>
    </edge>
    <edge id=":TrafficLight_01_15" function="internal">
        <lane id=":TrafficLight_01_15_0" index="0" speed="6.51" length="9.03" shape="-216.80,-111.20 -214.35,-111.55 -212.60,-112.60 -211.55,-114.35 -211.20,-116.80"/>
    </edge>
    <edge id=":TrafficLight_01_16" function="internal">
        <lane id=":TrafficLight_01_16_0" index="0" speed="13.89" length="33.60" shape="-216.80,-111.20 -183.20,-111.20"/>
        <lane id=":TrafficLight_01_16_1" index="1" speed="13.89" length="33.60" shape="-216.80,-108.00 -183.20,-108.00"/>
        <lane id=":TrafficLight_01_16_2" index="2" speed="13.89" length="33.60" shape="-216.80,-104.80 -183.20,-104.80"/>
    </edge>
    <edge id=":TrafficLight_01_19" function="internal">
        <lane id=":TrafficLight_01_19_0" index="0" speed="11.36" length="29.67" shape="-216.80,-101.60 -208.75,-100.45 -203.00,-97.00 -199.55,-91.25 -198.40,-83.20"/>
    </edge>
    <edge id=":TrafficLight_02_0" function="internal">
        <lane id=":TrafficLight_02_0_0" index="0" speed="6.51" length="9.03" shape="588.80,-83.20 588.45,-85.65 587.40,-87.40 585.65,-88.45 583.20,-88.80"/>
    </edge>
    <edge id=":TrafficLight_02_1" function="internal">
        <lane id=":TrafficLight_02_1_0" index="0" speed="13.89" length="33.60" shape="588.80,-83.20 588.80,-116.80"/>
        <lane id=":TrafficLight_02_1_1" index="1" speed="13.89" length="33.60" shape="592.00,-83.20 592.00,-116.80"/>
        <lane id=":TrafficLight_02_1_2" index="2" speed="13.89" length="33.60" shape="595.20,-83.20 595.20,-116.80"/>
    </edge>
    <edge id=":TrafficLight_02_4" function="internal">
        <lane id=":TrafficLight_02_4_0" index="0" speed="11.36" length="29.67" shape="598.40,-83.20 599.55,-91.25 603.00,-97.00 608.75,-100.45 616.80,-101.60"/>
    </edge>
    <edge id=":TrafficLight_02_5" function="internal">
        <lane id=":TrafficLight_02_5_0" index="0" speed="6.51" length="9.03" shape="616.80,-88.80 614.35,-88.45 612.60,-87.40 611.55,-85.65 611.20,-83.20"/>
    </edge>
    <edge id=":TrafficLight_02_6" function="internal">
        <lane id=":TrafficLight_02_6_0" index="0" speed="13.89" length="33.60" shape="616.80,-88.80 583.20,-88.80"/>
        <lane id=":TrafficLight_02_6_1" index="1" speed="13.89" length="33.60" shape="616.80,-92.00 583.20,-92.00"/>
        <lane id=":TrafficLight_02_6_2" index="2" speed="13.89" length="33.60" shape="616.80,-95.20 583.20,-95.20"/>
    </edge>
    <edge id=":TrafficLight_02_9" function="internal">
        <lane id=":TrafficLight_02_9_0" index="0" speed="11.36" length="29.67" shape="616.80,-98.40 608.75,-99.55 603.00,-103.00 599.55,-108.75 598.40,-116.80"/>
    </edge>
    <edge id=":TrafficLight_02_10" function="internal">
        <lane id=":TrafficLight_02_10_0" index="0" speed="6.51" length="9.03" shape="611.20,-116.80 611.55,-114.35 612.60,-112.60 614.35,-111.55 616.80,-111.20"/>
    </edge>
    <edge id=":TrafficLight_02_11" function="internal">
        <lane id=":TrafficLight_02_11_0" index="0" speed="13.89" length="33.60" shape="611.20,-116.80 611.20,-83.20"/>
        <lane id=":TrafficLight_02_11_1" index="1" speed="13.89" length="33.60" shape="608.00,-116.80 608.00,-83.20"/>
        <lane id=":TrafficLight_02_11_2" index="2" speed="13.89" length="33.60" shape="604.80,-116.80 604.80,-83.20"/>
    </edge>
    <edge id=":TrafficLight_02_14" function="internal">
        <lane id=":TrafficLight_02_14_0" index="0" speed="11.36" length="29.67" shape="601.60,-116.80 600.45,-108.75 597.00,-103.00 591.25,-99.55 583.20,-98.40"/>
    </edge>
    <edge id=":TrafficLight_02_15" function="internal">
        <lane id=":TrafficLight_02_15_0" index="0" speed="6.51" length="9.03" shape="583.20,-111.20 585.65,-111.55 587.40,-112.60 588.45,-114.35 588.80,-116.80"/>
    </edge>
    <edge id=":TrafficLight_02_16" function="internal">
        <lane id=":TrafficLight_02_16_0" index="0" speed="13.89" length="33.60" shape="583.20,-111.20 616.80,-111.20"/>
        <lane id=":TrafficLight_02_16_1" index="1" speed="13.89" length="33.60" shape="583.20,-108.00 616.80,-108.00"/>
        <lane id=":TrafficLight_02_16_2" index="2" speed="13.89" length="33.60" shape="583.20,-104.80 616.80,-104.80"/>
    </edge>
    <edge id=":TrafficLight_02_19" function="internal">
        <lane id=":TrafficLight_02_19_0" index="0" speed="11.36" length="29.67" shape="583.20,-101.60 591.25,-100.45 597.00,-97.00 600.45,-91.25 601.60,-83.20"/>
    </edge>

    <edge id="East2TrafficLight_01" from="EastEnd_01" to="TrafficLight_01" priority="-1">
        <lane id="East2TrafficLight_01_0" index="0" speed="13.89" length="783.20" shape="-1000.00,-111.20 -216.80,-111.20"/>
        <lane id="East2TrafficLight_01_1" index="1" speed="13.89" length="783.20" shape="-1000.00,-108.00 -216.80,-108.00"/>
        <lane id="East2TrafficLight_01_2" index="2" speed="13.89" length="783.20" shape="-1000.00,-104.80 -216.80,-104.80"/>
        <lane id="East2TrafficLight_01_3" index="3" speed="13.89" length="783.20" shape="-1000.00,-101.60 -216.80,-101.60"/>
    </edge>
    <edge id="East2TrafficLight_02" from="TrafficLight_01" to="TrafficLight_02" priority="-1">
        <lane id="East2TrafficLight_02_0" index="0" speed="13.89" length="766.40" shape="-183.20,-111.20 583.20,-111.20"/>
        <lane id="East2TrafficLight_02_1" index="1" speed="13.89" length="766.40" shape="-183.20,-108.00 583.20,-108.00"/>
        <lane id="East2TrafficLight_02_2" index="2" speed="13.89" length="766.40" shape="-183.20,-104.80 583.20,-104.80"/>
        <lane id="East2TrafficLight_02_3" index="3" speed="13.89" length="766.40" shape="-183.20,-101.60 583.20,-101.60"/>
    </edge>
    <edge id="North2TrafficLight_01" from="NorthEnd_01" to="TrafficLight_01" priority="-1">
        <lane id="North2TrafficLight_01_0" index="0" speed="13.89" length="783.20" shape="-211.20,700.00 -211.20,-83.20"/>
        <lane id="North2TrafficLight_01_1" index="1" speed="13.89" length="783.20" shape="-208.00,700.00 -208.00,-83.20"/>
        <lane id="North2TrafficLight_01_2" index="2" speed="13.89" length="783.20" shape="-204.80,700.00 -204.80,-83.20"/>
        <lane id="North2TrafficLight_01_3" index="3" speed="13.89" length="783.20" shape="-201.60,700.00 -201.60,-83.20"/>
    </edge>
    <edge id="North2TrafficLight_02" from="NorthEnd_02" to="TrafficLight_02" priority="-1">
        <lane id="North2TrafficLight_02_0" index="0" speed="13.89" length="783.20" shape="588.80,700.00 588.80,-83.20"/>
        <lane id="North2TrafficLight_02_1" index="1" speed="13.89" length="783.20" shape="592.00,700.00 592.00,-83.20"/>
        <lane id="North2TrafficLight_02_2" index="2" speed="13.89" length="783.20" shape="595.20,700.00 595.20,-83.20"/>
        <lane id="North2TrafficLight_02_3" index="3" speed="13.89" length="783.20" shape="598.40,700.00 598.40,-83.20"/>
    </edge>
    <edge id="South2TrafficLight_01" from="SouthEnd_01" to="TrafficLight_01" priority="-1">
        <lane id="South2TrafficLight_01_0" index="0" speed="13.89" length="783.20" shape="-188.80,-900.00 -188.80,-116.80"/>
        <lane id="South2TrafficLight_01_1" index="1" speed="13.89" length="783.20" shape="-192.00,-900.00 -192.00,-116.80"/>
        <lane id="South2TrafficLight_01_2" index="2" speed="13.89" length="783.20" shape="-195.20,-900.00 -195.20,-116.80"/>
        <lane id="South2TrafficLight_01_3" index="3" speed="13.89" length="783.20" shape="-198.40,-900.00 -198.40,-116.80"/>
    </edge>
    <edge id="South2TrafficLight_02" from="SouthEnd_02" to="TrafficLight_02" priority="-1">
        <lane id="South2TrafficLight_02_0" index="0" speed="13.89" length="783.20" shape="611.20,-900.00 611.20,-116.80"/>
        <lane id="South2TrafficLight_02_1" index="1" speed="13.89" length="783.20" shape="608.00,-900.00 608.00,-116.80"/>
        <lane id="South2TrafficLight_02_2" index="2" speed="13.89" length="783.20" shape="604.80,-900.00 604.80,-116.80"/>
        <lane id="South2TrafficLight_02_3" index="3" speed="13.89" length="783.20" shape="601.60,-900.00 601.60,-116.80"/>
    </edge>
    <edge id="TrafficLight2East_01" from="TrafficLight_01" to="EastEnd_01" priority="-1">
        <lane id="TrafficLight2East_01_0" index="0" speed="13.89" length="783.20" shape="-216.80,-88.80 -1000.00,-88.80"/>
        <lane id="TrafficLight2East_01_1" index="1" speed="13.89" length="783.20" shape="-216.80,-92.00 -1000.00,-92.00"/>
        <lane id="TrafficLight2East_01_2" index="2" speed="13.89" length="783.20" shape="-216.80,-95.20 -1000.00,-95.20"/>
        <lane id="TrafficLight2East_01_3" index="3" speed="13.89" length="783.20" shape="-216.80,-98.40 -1000.00,-98.40"/>
    </edge>
    <edge id="TrafficLight2North_01" from="TrafficLight_01" to="NorthEnd_01" priority="-1">
        <lane id="TrafficLight2North_01_0" index="0" speed="13.89" length="783.20" shape="-188.80,-83.20 -188.80,700.00"/>
        <lane id="TrafficLight2North_01_1" index="1" speed="13.89" length="783.20" shape="-192.00,-83.20 -192.00,700.00"/>
        <lane id="TrafficLight2North_01_2" index="2" speed="13.89" length="783.20" shape="-195.20,-83.20 -195.20,700.00"/>
        <lane id="TrafficLight2North_01_3" index="3" speed="13.89" length="783.20" shape="-198.40,-83.20 -198.40,700.00"/>
    </edge>
    <edge id="TrafficLight2North_02" from="TrafficLight_02" to="NorthEnd_02" priority="-1">
        <lane id="TrafficLight2North_02_0" index="0" speed="13.89" length="783.20" shape="611.20,-83.20 611.20,700.00"/>
        <lane id="TrafficLight2North_02_1" index="1" speed="13.89" length="783.20" shape="608.00,-83.20 608.00,700.00"/>
        <lane id="TrafficLight2North_02_2" index="2" speed="13.89" length="783.20" shape="604.80,-83.20 604.80,700.00"/>
        <lane id="TrafficLight2North_02_3" index="3" speed="13.89" length="783.20" shape="601.60,-83.20 601.60,700.00"/>
    </edge>
    <edge id="TrafficLight2South_01" from="TrafficLight_01" to="SouthEnd_01" priority="-1">
        <lane id="TrafficLight2South_01_0" index="0" speed="13.89" length="783.20" shape="-211.20,-116.80 -211.20,-900.00"/>
        <lane id="TrafficLight2South_01_1" index="1" speed="13.89" length="783.20" shape="-208.00,-116.80 -208.00,-900.00"/>
        <lane id="TrafficLight2South_01_2" index="2" speed="13.89" length="783.20" shape="-204.80,-116.80 -204.80,-900.00"/>
        <lane id="TrafficLight2South_01_3" index="3" speed="13.89" length="783.20" shape="-201.60,-116.80 -201.60,-900.00"/>
    </edge>
    <edge id="TrafficLight2South_02" from="TrafficLight_02" to="SouthEnd_02" priority="-1">
        <lane id="TrafficLight2South_02_0" index="0" speed="13.89" length="783.20" shape="588.80,-116.80 588.80,-900.00"/>
        <lane id="TrafficLight2South_02_1" index="1" speed="13.89" length="783.20" shape="592.00,-116.80 592.00,-900.00"/>
        <lane id="TrafficLight2South_02_2" index="2" speed="13.89" length="783.20" shape="595.20,-116.80 595.20,-900.00"/>
        <lane id="TrafficLight2South_02_3" index="3" speed="13.89" length="783.20" shape="598.40,-116.80 598.40,-900.00"/>
    </edge>
    <edge id="TrafficLight2West_02" from="TrafficLight_02" to="WestEnd_02" priority="-1">
        <lane id="TrafficLight2West_02_0" index="0" speed="13.89" length="783.20" shape="616.80,-111.20 1400.00,-111.20"/>
        <lane id="TrafficLight2West_02_1" index="1" speed="13.89" length="783.20" shape="616.80,-108.00 1400.00,-108.00"/>
        <lane id="TrafficLight2West_02_2" index="2" speed="13.89" length="783.20" shape="616.80,-104.80 1400.00,-104.80"/>
        <lane id="TrafficLight2West_02_3" index="3" speed="13.89" length="783.20" shape="616.80,-101.60 1400.00,-101.60"/>
    </edge>
    <edge id="West2TrafficLight_01" from="TrafficLight_02" to="TrafficLight_01" priority="-1">
        <lane id="West2TrafficLight_01_0" index="0" speed="13.89" length="766.40" shape="583.20,-88.80 -183.20,-88.80"/>
        <lane id="West2TrafficLight_01_1" index="1" speed="13.89" length="766.40" shape="583.20,-92.00 -183.20,-92.00"/>
        <lane id="West2TrafficLight_01_2" index="2" speed="13.89" length="766.40" shape="583.20,-95.20 -183.20,-95.20"/>
        <lane id="West2TrafficLight_01_3" index="3" speed="13.89" length="766.40" shape="583.20,-98.40 -183.20,-98.40"/>
    </edge>
    <edge id="West2TrafficLight_02" from="WestEnd_02" to="TrafficLight_02" priority="-1">
        <lane id="West2TrafficLight_02_0" index="0" speed="13.89" length="783.20" shape="1400.00,-88.80 616.80,-88.80"/>
        <lane id="West2TrafficLight_02_1" index="1" speed="13.89" length="783.20" shape="1400.00,-92.00 616.80,-92.00"/>
        <lane id="West2TrafficLight_02_2" index="2" speed="13.89" length="783.20" shape="1400.00,-95.20 616.80,-95.20"/>
        <lane id="West2TrafficLight_02_3" index="3" speed="13.89" length="783.20" shape="1400.00,-98.40 616.80,-98.40"/>
    </edge>

    <tlLogic id="TrafficLight_01" type="static" programID="8" offset="0">
        <phase duration="100" state="GGGGrrrrrrGGGGrrrrrr"/>
        <phase duration="100" state="yyyyrrrrrryyyyrrrrrr"/>
        <phase duration="100" state="rrrrGrrrrrrrrrGrrrrr"/>
        <phase duration="100" state="rrrryrrrrrrrrryrrrrr"/>
        <phase duration="100" state="rrrrrGGGGrrrrrrGGGGr"/>
        <phase duration="100" state="rrrrryyyyrrrrrryyyyr"/>
        <phase duration="100" state="rrrrrrrrrGrrrrrrrrrG"/>
        <phase duration="100" state="rrrrrrrrryrrrrrrrrry"/>
    </tlLogic>
    <tlLogic id="TrafficLight_02" type="static" programID="0" offset="0">
        <phase duration="100" state="GGGGrrrrrrGGGGrrrrrr"/>
        <phase duration="100" state="yyyygrrrrryyyygrrrrr"/>
        <phase duration="100" state="rrrrGrrrrrrrrrGrrrrr"/>
        <phase duration="100" state="rrrryrrrrrrrrryrrrrr"/>
        <phase duration="100" state="rrrrrGGGGrrrrrrGGGGr"/>
        <phase duration="100" state="rrrrryyyyrrrrrryyyyr"/>
        <phase duration="100" state="rrrrrrrrrGrrrrrrrrrG"/>
        <phase duration="100" state="rrrrrrrrryrrrrrrrrry"/>
    </tlLogic>

    <junction id="EastEnd_01" type="dead_end" x="-1000.00" y="-100.00" incLanes="TrafficLight2East_01_0 TrafficLight2East_01_1 TrafficLight2East_01_2 TrafficLight2East_01_3" intLanes="" shape="-1000.00,-100.00 -1000.00,-87.20 -1000.00,-100.00"/>
    <junction id="NorthEnd_01" type="dead_end" x="-200.00" y="700.00" incLanes="TrafficLight2North_01_0 TrafficLight2North_01_1 TrafficLight2North_01_2 TrafficLight2North_01_3" intLanes="" shape="-200.00,700.00 -187.20,700.00 -200.00,700.00"/>
    <junction id="NorthEnd_02" type="dead_end" x="600.00" y="700.00" incLanes="TrafficLight2North_02_0 TrafficLight2North_02_1 TrafficLight2North_02_2 TrafficLight2North_02_3" intLanes="" shape="600.00,700.00 612.80,700.00 600.00,700.00"/>
    <junction id="SouthEnd_01" type="dead_end" x="-200.00" y="-900.00" incLanes="TrafficLight2South_01_0 TrafficLight2South_01_1 TrafficLight2South_01_2 TrafficLight2South_01_3" intLanes="" shape="-200.00,-900.00 -212.80,-900.00 -200.00,-900.00"/>
    <junction id="SouthEnd_02" type="dead_end" x="600.00" y="-900.00" incLanes="TrafficLight2South_02_0 TrafficLight2South_02_1 TrafficLight2South_02_2 TrafficLight2South_02_3" intLanes="" shape="600.00,-900.00 587.20,-900.00 600.00,-900.00"/>
    <junction id="TrafficLight_01" type="traffic_light" x="-200.00" y="-100.00" incLanes="North2TrafficLight_01_0 North2TrafficLight_01_1 North2TrafficLight_01_2 North2TrafficLight_01_3 West2TrafficLight_01_0 West2TrafficLight_01_1 West2TrafficLight_01_2 West2TrafficLight_01_3 South2TrafficLight_01_0 South2TrafficLight_01_1 South2TrafficLight_01_2 South2TrafficLight_01_3 East2TrafficLight_01_0 East2TrafficLight_01_1 East2TrafficLight_01_2 East2TrafficLight_01_3" intLanes=":TrafficLight_01_0_0 :TrafficLight_01_1_0 :TrafficLight_01_1_1 :TrafficLight_01_1_2 :TrafficLight_01_4_0 :TrafficLight_01_5_0 :TrafficLight_01_6_0 :TrafficLight_01_6_1 :TrafficLight_01_6_2 :TrafficLight_01_9_0 :TrafficLight_01_10_0 :TrafficLight_01_11_0 :TrafficLight_01_11_1 :TrafficLight_01_11_2 :TrafficLight_01_14_0 :TrafficLight_01_15_0 :TrafficLight_01_16_0 :TrafficLight_01_16_1 :TrafficLight_01_16_2 :TrafficLight_01_19_0" shape="-212.80,-83.20 -187.20,-83.20 -186.76,-85.42 -186.20,-86.20 -185.42,-86.76 -184.42,-87.09 -183.20,-87.20 -183.20,-112.80 -185.42,-113.24 -186.20,-113.80 -186.76,-114.58 -187.09,-115.58 -187.20,-116.80 -212.80,-116.80 -213.24,-114.58 -213.80,-113.80 -214.58,-113.24 -215.58,-112.91 -216.80,-112.80 -216.80,-87.20 -214.58,-86.76 -213.80,-86.20 -213.24,-85.42 -212.91,-84.42">
        <request index="0"  response="00000000000000000000" foes="00000000000111000000" cont="0"/>
        <request index="1"  response="00000000000000000000" foes="11111100000111000000" cont="0"/>
        <request index="2"  response="00000000000000000000" foes="11111100000111000000" cont="0"/>
        <request index="3"  response="00000000000000000000" foes="11111100000111000000" cont="0"/>
        <request index="4"  response="00000011100000000000" foes="10000011101111000000" cont="0"/>
        <request index="5"  response="00000011100000000000" foes="00000011100000000000" cont="0"/>
        <request index="6"  response="00000011100000011111" foes="10000011100000011111" cont="0"/>
        <request index="7"  response="00000011100000011111" foes="10000011100000011111" cont="0"/>
        <request index="8"  response="00000011100000011111" foes="10000011100000011111" cont="0"/>
        <request index="9"  response="01110111100000010000" foes="01110111100000010000" cont="0"/>
        <request index="10" response="00000000000000000000" foes="01110000000000000000" cont="0"/>
        <request index="11" response="00000000000000000000" foes="01110000001111110000" cont="0"/>
        <request index="12" response="00000000000000000000" foes="01110000001111110000" cont="0"/>
        <request index="13" response="00000000000000000000" foes="01110000001111110000" cont="0"/>
        <request index="14" response="00000000000000001110" foes="11110000001000001110" cont="0"/>
        <request index="15" response="00000000000000001110" foes="00000000000000001110" cont="0"/>
        <request index="16" response="00000111110000001110" foes="00000111111000001110" cont="0"/>
        <request index="17" response="00000111110000001110" foes="00000111111000001110" cont="0"/>
        <request index="18" response="00000111110000001110" foes="00000111111000001110" cont="0"/>
        <request index="19" response="00000100000111011110" foes="00000100000111011110" cont="0"/>
    </junction>
    <junction id="TrafficLight_02" type="traffic_light" x="600.00" y="-100.00" incLanes="North2TrafficLight_02_0 North2TrafficLight_02_1 North2TrafficLight_02_2 North2TrafficLight_02_3 West2TrafficLight_02_0 West2TrafficLight_02_1 West2TrafficLight_02_2 West2TrafficLight_02_3 South2TrafficLight_02_0 South2TrafficLight_02_1 South2TrafficLight_02_2 South2TrafficLight_02_3 East2TrafficLight_02_0 East2TrafficLight_02_1 East2TrafficLight_02_2 East2TrafficLight_02_3" intLanes=":TrafficLight_02_0_0 :TrafficLight_02_1_0 :TrafficLight_02_1_1 :TrafficLight_02_1_2 :TrafficLight_02_4_0 :TrafficLight_02_5_0 :TrafficLight_02_6_0 :TrafficLight_02_6_1 :TrafficLight_02_6_2 :TrafficLight_02_9_0 :TrafficLight_02_10_0 :TrafficLight_02_11_0 :TrafficLight_02_11_1 :TrafficLight_02_11_2 :TrafficLight_02_14_0 :TrafficLight_02_15_0 :TrafficLight_02_16_0 :TrafficLight_02_16_1 :TrafficLight_02_16_2 :TrafficLight_02_19_0" shape="587.20,-83.20 612.80,-83.20 613.24,-85.42 613.80,-86.20 614.58,-86.76 615.58,-87.09 616.80,-87.20 616.80,-112.80 614.58,-113.24 613.80,-113.80 613.24,-114.58 612.91,-115.58 612.80,-116.80 587.20,-116.80 586.76,-114.58 586.20,-113.80 585.42,-113.24 584.42,-112.91 583.20,-112.80 583.20,-87.20 585.42,-86.76 586.20,-86.20 586.76,-85.42 587.09,-84.42">
        <request index="0"  response="00000000000000000000" foes="00000000000111000000" cont="0"/>
        <request index="1"  response="00000000000000000000" foes="11111100000111000000" cont="0"/>
        <request index="2"  response="00000000000000000000" foes="11111100000111000000" cont="0"/>
        <request index="3"  response="00000000000000000000" foes="11111100000111000000" cont="0"/>
        <request index="4"  response="00000011100000000000" foes="10000011101111000000" cont="0"/>
        <request index="5"  response="00000011100000000000" foes="00000011100000000000" cont="0"/>
        <request index="6"  response="00000011100000011111" foes="10000011100000011111" cont="0"/>
        <request index="7"  response="00000011100000011111" foes="10000011100000011111" cont="0"/>
        <request index="8"  response="00000011100000011111" foes="10000011100000011111" cont="0"/>
        <request index="9"  response="01110111100000010000" foes="01110111100000010000" cont="0"/>
        <request index="10" response="00000000000000000000" foes="01110000000000000000" cont="0"/>
        <request index="11" response="00000000000000000000" foes="01110000001111110000" cont="0"/>
        <request index="12" response="00000000000000000000" foes="01110000001111110000" cont="0"/>
        <request index="13" response="00000000000000000000" foes="01110000001111110000" cont="0"/>
        <request index="14" response="00000000000000001110" foes="11110000001000001110" cont="0"/>
        <request index="15" response="00000000000000001110" foes="00000000000000001110" cont="0"/>
        <request index="16" response="00000111110000001110" foes="00000111111000001110" cont="0"/>
        <request index="17" response="00000111110000001110" foes="00000111111000001110" cont="0"/>
        <request index="18" response="00000111110000001110" foes="00000111111000001110" cont="0"/>
        <request index="19" response="00000100000111011110" foes="00000100000111011110" cont="0"/>
    </junction>
    <junction id="WestEnd_02" type="dead_end" x="1400.00" y="-100.00" incLanes="TrafficLight2West_02_0 TrafficLight2West_02_1 TrafficLight2West_02_2 TrafficLight2West_02_3" intLanes="" shape="1400.00,-100.00 1400.00,-112.80 1400.00,-100.00"/>

    <connection from="East2TrafficLight_01" to="TrafficLight2South_01" fromLane="0" toLane="0" via=":TrafficLight_01_15_0" tl="TrafficLight_01" linkIndex="15" dir="r" state="o"/>
    <connection from="East2TrafficLight_01" to="East2TrafficLight_02" fromLane="0" toLane="0" via=":TrafficLight_01_16_0" tl="TrafficLight_01" linkIndex="16" dir="s" state="o"/>
    <connection from="East2TrafficLight_01" to="East2TrafficLight_02" fromLane="1" toLane="1" via=":TrafficLight_01_16_1" tl="TrafficLight_01" linkIndex="17" dir="s" state="o"/>
    <connection from="East2TrafficLight_01" to="East2TrafficLight_02" fromLane="2" toLane="2" via=":TrafficLight_01_16_2" tl="TrafficLight_01" linkIndex="18" dir="s" state="o"/>
    <connection from="East2TrafficLight_01" to="TrafficLight2North_01" fromLane="3" toLane="3" via=":TrafficLight_01_19_0" tl="TrafficLight_01" linkIndex="19" dir="l" state="o"/>
    <connection from="East2TrafficLight_02" to="TrafficLight2South_02" fromLane="0" toLane="0" via=":TrafficLight_02_15_0" tl="TrafficLight_02" linkIndex="15" dir="r" state="o"/>
    <connection from="East2TrafficLight_02" to="TrafficLight2West_02" fromLane="0" toLane="0" via=":TrafficLight_02_16_0" tl="TrafficLight_02" linkIndex="16" dir="s" state="o"/>
    <connection from="East2TrafficLight_02" to="TrafficLight2West_02" fromLane="1" toLane="1" via=":TrafficLight_02_16_1" tl="TrafficLight_02" linkIndex="17" dir="s" state="o"/>
    <connection from="East2TrafficLight_02" to="TrafficLight2West_02" fromLane="2" toLane="2" via=":TrafficLight_02_16_2" tl="TrafficLight_02" linkIndex="18" dir="s" state="o"/>
    <connection from="East2TrafficLight_02" to="TrafficLight2North_02" fromLane="3" toLane="3" via=":TrafficLight_02_19_0" tl="TrafficLight_02" linkIndex="19" dir="l" state="o"/>
    <connection from="North2TrafficLight_01" to="TrafficLight2East_01" fromLane="0" toLane="0" via=":TrafficLight_01_0_0" tl="TrafficLight_01" linkIndex="0" dir="r" state="O"/>
    <connection from="North2TrafficLight_01" to="TrafficLight2South_01" fromLane="0" toLane="0" via=":TrafficLight_01_1_0" tl="TrafficLight_01" linkIndex="1" dir="s" state="O"/>
    <connection from="North2TrafficLight_01" to="TrafficLight2South_01" fromLane="1" toLane="1" via=":TrafficLight_01_1_1" tl="TrafficLight_01" linkIndex="2" dir="s" state="O"/>
    <connection from="North2TrafficLight_01" to="TrafficLight2South_01" fromLane="2" toLane="2" via=":TrafficLight_01_1_2" tl="TrafficLight_01" linkIndex="3" dir="s" state="O"/>
    <connection from="North2TrafficLight_01" to="East2TrafficLight_02" fromLane="3" toLane="3" via=":TrafficLight_01_4_0" tl="TrafficLight_01" linkIndex="4" dir="l" state="o"/>
    <connection from="North2TrafficLight_02" to="West2TrafficLight_01" fromLane="0" toLane="0" via=":TrafficLight_02_0_0" tl="TrafficLight_02" linkIndex="0" dir="r" state="O"/>
    <connection from="North2TrafficLight_02" to="TrafficLight2South_02" fromLane="0" toLane="0" via=":TrafficLight_02_1_0" tl="TrafficLight_02" linkIndex="1" dir="s" state="O"/>
    <connection from="North2TrafficLight_02" to="TrafficLight2South_02" fromLane="1" toLane="1" via=":TrafficLight_02_1_1" tl="TrafficLight_02" linkIndex="2" dir="s" state="O"/>
    <connection from="North2TrafficLight_02" to="TrafficLight2South_02" fromLane="2" toLane="2" via=":TrafficLight_02_1_2" tl="TrafficLight_02" linkIndex="3" dir="s" state="O"/>
    <connection from="North2TrafficLight_02" to="TrafficLight2West_02" fromLane="3" toLane="3" via=":TrafficLight_02_4_0" tl="TrafficLight_02" linkIndex="4" dir="l" state="o"/>