<routes>
            <vType accel="1.0" decel="4.5" id="standard_car" length="5.0" minGap="2.5" maxSpeed="25" sigma="0.5" />

            <route id="E_N_01" edges="East2TrafficLight_01 TrafficLight2North_01"/>
            <route id="E_S_01" edges="East2TrafficLight_01 TrafficLight2South_01"/>
            <route id="E_W_N_01" edges="East2TrafficLight_01 East2TrafficLight_02 TrafficLight2North_02"/>
            <route id="E_W_S_01" edges="East2TrafficLight_01 East2TrafficLight_02 TrafficLight2South_02"/>
            <route id="E_W_W_01" edges="East2TrafficLight_01 East2TrafficLight_02 TrafficLight2West_02"/>

            <route id="S_N_01" edges="South2TrafficLight_01 TrafficLight2North_01"/>
            <route id="S_E_01" edges="South2TrafficLight_01 TrafficLight2East_01"/>
            <route id="S_W_N_01" edges="South2TrafficLight_01 East2TrafficLight_02 TrafficLight2North_02"/>
            <route id="S_W_S_01" edges="South2TrafficLight_01 East2TrafficLight_02 TrafficLight2South_02"/>
            <route id="S_W_W_01" edges="South2TrafficLight_01 East2TrafficLight_02 TrafficLight2West_02"/>

            <route id="N_E_01" edges="North2TrafficLight_01 TrafficLight2East_01"/>
            <route id="N_S_01" edges="North2TrafficLight_01 TrafficLight2South_01"/>
            <route id="N_W_N_01" edges="North2TrafficLight_01 East2TrafficLight_02 TrafficLight2North_02"/>
            <route id="N_W_S_01" edges="North2TrafficLight_01 East2TrafficLight_02 TrafficLight2South_02"/>
            <route id="N_W_W_01" edges="North2TrafficLight_01 East2TrafficLight_02 TrafficLight2West_02"/>


            <route id="W_N_02" edges="West2TrafficLight_02 TrafficLight2North_02"/>
            <route id="W_S_02" edges="West2TrafficLight_02 TrafficLight2South_02"/>
            <route id="W_E_N_02" edges="West2TrafficLight_02 West2TrafficLight_01 TrafficLight2North_01"/>
            <route id="W_E_S_02" edges="West2TrafficLight_02 West2TrafficLight_01 TrafficLight2South_01"/>
            <route id="W_E_E_02" edges="West2TrafficLight_02 West2TrafficLight_01 TrafficLight2East_01"/>

            <route id="S_W_02" edges="South2TrafficLight_02 TrafficLight2West_02"/>
            <route id="S_N_02" edges="South2TrafficLight_02 TrafficLight2North_02"/>
            <route id="S_E_N_02" edges="South2TrafficLight_02 West2TrafficLight_01 TrafficLight2North_01"/>
            <route id="S_E_S_02" edges="South2TrafficLight_02 West2TrafficLight_01 TrafficLight2South_01"/>
            <route id="S_E_E_02" edges="South2TrafficLight_02 West2TrafficLight_01 TrafficLight2East_01"/>

            <route id="N_W_02" edges="North2TrafficLight_02 TrafficLight2West_02"/>
            <route id="N_S_02" edges="North2TrafficLight_02 TrafficLight2South_02"/>
            <route id="N_E_N_02" edges="North2TrafficLight_02 West2TrafficLight_01 TrafficLight2North_01"/>
            <route id="N_E_S_02" edges="North2TrafficLight_02 West2TrafficLight_01 TrafficLight2South_01"/>
            <route id="N_E_E_02" edges="North2TrafficLight_02 West2TrafficLight_01 TrafficLight2East_01"/>

            
    <vehicle id="S_N_02_0" type="standard_car" route="S_N_02" depart="8.0" departLane="random" departSpeed="10" />
    <vehicle id="N_S_01_1" type="standard_car" route="N_S_01" depart="8.0" departLane="random" departSpeed="10" />
    <vehicle id="E_W_N_01_2" type="standard_car" route="E_W_N_01" depart="66.0" departLane="random" departSpeed="10" />
    <vehicle id="N_W_N_01_3" type="standard_car" route="N_W_N_01" depart="100.0" departLane="random" departSpeed="10" />
    <vehicle id="S_N_01_4" type="standard_car" route="S_N_01" depart="119.0" departLane="random" departSpeed="10" />
    <vehicle id="N_S_01_5" type="standard_car" route="N_S_01" depart="122.0" departLane="random" departSpeed="10" />
    <vehicle id="S_N_02_6" type="standard_car" route="S_N_02" depart="122.0" departLane="random" departSpeed="10" />
    <vehicle id="E_S_01_7" type="standard_car" route="E_S_01" depart="146.0" departLane="random" departSpeed="10" />
    <vehicle id="W_E_E_02_8" type="standard_car" route="W_E_E_02" depart="149.0" departLane="random" departSpeed="10" />
    <vehicle id="N_S_02_9" type="standard_car" route="N_S_02" depart="149.0" departLane="random" departSpeed="10" />
    <vehicle id="N_S_02_10" type="standard_car" route="N_S_02" depart="161.0" departLane="random" departSpeed="10" />
    <vehicle id="S_E_E_02_11" type="standard_car" route="S_E_E_02" depart="169.0" departLane="random" departSpeed="10" />
    <vehicle id="N_S_01_12" type="standard_car" route="N_S_01" depart="213.0" departLane="random" departSpeed="10" />
    <vehicle id="S_N_01_13" type="standard_car" route="S_N_01" depart="214.0" departLane="random" departSpeed="10" />
    <vehicle id="N_S_02_14" type="standard_car" route="N_S_02" depart="219.0" departLane="random" departSpeed="10" />
    <vehicle id="S_E_E_02_15" type="standard_car" route="S_E_E_02" depart="222.0" departLane="random" departSpeed="10" />
    <vehicle id="S_W_N_01_16" type="standard_car" route="S_W_N_01" depart="225.0" departLane="random" departSpeed="10" />
    <vehicle id="E_W_W_01_17" type="standard_car" route="E_W_W_01" depart="227.0" departLane="random" departSpeed="10" />
    <vehicle id="S_N_02_18" type="standard_car" route="S_N_02" depart="233.0" departLane="random" departSpeed="10" />
    <vehicle id="E_W_W_01_19" type="standard_car" route="E_W_W_01" depart="243.0" departLane="random" departSpeed="10" />
    <vehicle id="N_W_W_01_20" type="standard_car" route="N_W_W_01" depart="255.0" departLane="random" departSpeed="10" />
    <vehicle id="E_W_N_01_21" type="standard_car" route="E_W_N_01" depart="269.0" departLane="random" departSpeed="10" />
    <vehicle id="N_S_02_22" type="standard_car" route="N_S_02" depart="278.0" departLane="random" departSpeed="10" />
    <vehicle id="N_S_02_23" type="standard_car" route="N_S_02" depart="279.0" departLane="random" departSpeed="10" />
    <vehicle id="S_N_02_24" type="standard_car" route="S_N_02" depart="285.0" departLane="random" departSpeed="10" />
    <vehicle id="N_S_02_25" type="standard_car" route="N_S_02" depart="290.0" departLane="random" departSpeed="10" />
    <vehicle id="W_E_E_02_26" type="standard_car" route="W_E_E_02" depart="295.0" departLane="random" departSpeed="10" />
    <vehicle id="E_S_01_27" type="standard_car" route="E_S_01" depart="300.0" departLane="random" departSpeed="10" />
    <vehicle id="S_E_N_02_28" type="standard_car" route="S_E_N_02" depart="305.0" departLane="random" departSpeed="10" />
    <vehicle id="S_N_02_29" type="standard_car" route="S_N_02" depart="305.0" departLane="random" departSpeed="10" />
    <vehicle id="S_N_02_30" type="standard_car" route="S_N_02" depart="311.0" departLane="random" departSpeed="10" />
    <vehicle id="W_E_E_02_31" type="standard_car" route="W_E_E_02" depart="322.0" departLane="random" departSpeed="10" />
    <vehicle id="W_E_E_02_32" type="standard_car" route="W_E_E_02" depart="324.0" departLane="random" departSpeed="10" />
    <vehicle id="E_W_W_01_33" type="standard_car" route="E_W_W_01" depart="326.0" departLane="random" departSpeed="10" />
    <vehicle id="N_S_02_34" type="standard_car" route="N_S_02" depart="326.0" departLane="random" departSpeed="10" />
    <vehicle id="S_N_02_35" type="standard_car" route="S_N_02" depart="342.0" departLane="random" departSpeed="10" />
    <vehicle id="N_S_01_36" type="standard_car" route="N_S_01" depart="347.0" departLane="random" departSpeed="10" />
    <vehicle id="N_S_02_37" type="standard_car" route="N_S_02" depart="353.0" departLane="random" departSpeed="10" />
    <vehicle id="N_S_01_38" type="standard_car" route="N_S_01" depart="355.0" departLane="random" departSpeed="10" />
    <vehicle id="W_E_E_02_39" type="standard_car" route="W_E_E_02" depart="356.0" departLane="random" departSpeed="10" />
    <vehicle id="W_E_E_02_40" type="standard_car" route="W_E_E_02" depart="357.0" departLane="random" departSpeed="10" />
    <vehicle id="S_N_02_41" type="standard_car" route="S_N_02" depart="361.0" departLane="random" departSpeed="10" />
    <vehicle id="S_N_02_42" type="standard_car" route="S_N_02" depart="363.0" departLane="random" departSpeed="10" />
    <vehicle id="E_W_W_01_43" type="standard_car" route="E_W_W_01" depart="364.0" departLane="random" departSpeed="10" />
    <vehicle id="S_N_01_44" type="standard_car" route="S_N_01" depart="372.0" departLane="random" departSpeed="10" />
    <vehicle id="S_N_01_45" type="standard_car" route="S_N_01" depart="372.0" departLane="random" departSpeed="10" />
    <vehicle id="N_S_01_46" type="standard_car" route="N_S_01" depart="372.0" departLane="random" departSpeed="10" />
    <vehicle id="N_S_01_47" type="standard_car" route="N_S_01" depart="373.0" departLane="random" departSpeed="10" />
    <vehicle id="N_S_02_48" type="standard_car" route="N_S_02" depart="375.0" departLane="random" departSpeed="10" />
    <vehicle id="S_N_02_49" type="standard_car" route="S_N_02" depart="379.0" departLane="random" departSpeed="10" />
    <vehicle id="S_N_01_50" type="standard_car" route="S_N_01" depart="380.0" departLane="random" departSpeed="10" />
    <vehicle id="N_S_02_51" type="standard_car" route="N_S_02" depart="390.0" departLane="random" departSpeed="10" />
    <vehicle id="N_S_01_52" type="standard_car" route="N_S_01" depart="394.0" departLane="random" departSpeed="10" />
    <vehicle id="S_E_N_02_53" type="standard_car" route="S_E_N_02" depart="394.0" departLane="random" departSpeed="10" />
    <vehicle id="S_N_01_54" type="standard_car" route="S_N_01" depart="400.0" departLane="random" departSpeed="10" />
    <vehicle id="N_W_S_01_55" type="standard_car" route="N_W_S_01" depart="402.0" departLane="random" departSpeed="10" />
    <vehicle id="S_E_S_02_56" type="standard_car" route="S_E_S_02" depart="403.0" departLane="random" departSpeed="10" />
    <vehicle id="S_N_02_57" type="standard_car" route="S_N_02" depart="404.0" departLane="random" departSpeed="10" />
    <vehicle id="S_N_01_58" type="standard_car" route="S_N_01" depart="409.0" departLane="random" departSpeed="10" />
    <vehicle id="W_E_E_02_59" type="standard_car" route="W_E_E_02" depart="410.0" departLane="random" departSpeed="10" />
    <vehicle id="S_N_01_60" type="standard_car" route="S_N_01" depart="412.0" departLane="random" departSpeed="10" />
    <vehicle id="S_N_02_61" type="standard_car" route="S_N_02" depart="414.0" departLane="random" departSpeed="10" />
    <vehicle id="S_N_02_62" type="standard_car" route="S_N_02" depart="416.0" departLane="random" departSpeed="10" />
    <vehicle id="W_E_E_02_63" type="standard_car" route="W_E_E_02" depart="421.0" departLane="random" departSpeed="10" />
    <vehicle id="W_E_E_02_64" type="standard_car" route="W_E_E_02" depart="422.0" departLane="random" departSpeed="10" />
    <vehicle id="N_W_S_01_65" type="standard_car" route="N_W_S_01" depart="427.0" departLane="random" departSpeed="10" />
    <vehicle id="E_W_W_01_66" type="standard_car" route="E_W_W_01" depart="438.0" departLane="random" departSpeed="10" />
    <vehicle id="S_N_02_67" type="standard_car" route="S_N_02" depart="442.0" departLane="random" departSpeed="10" />
    <vehicle id="S_N_02_68" type="standard_car" route="S_N_02" depart="442.0" departLane="random" departSpeed="10" />
    <vehicle id="W_E_E_02_69" type="standard_car" route="W_E_E_02" depart="443.0" departLane="random" departSpeed="10" />
    <vehicle id="W_E_E_02_70" type="standard_car" route="W_E_E_02" depart="449.0" departLane="random" departSpeed="10" />
    <vehicle id="E_W_W_01_71" type="standard_car" route="E_W_W_01" depart="459.0" departLane="random" departSpeed="10" />
    <vehicle id="S_W_S_01_72" type="standard_car" route="S_W_S_01" depart="461.0" departLane="random" departSpeed="10" />
    <vehicle id="S_N_02_73" type="standard_car" route="S_N_02" depart="463.0" departLane="random" departSpeed="10" />
    <vehicle id="E_W_W_01_74" type="standard_car" route="E_W_W_01" depart="469.0" departLane="random" departSpeed="10" />
    <vehicle id="S_W_W_01_75" type="standard_car" route="S_W_W_01" depart="470.0" departLane="random" departSpeed="10" />
    <vehicle id="S_N_01_76" type="standard_car" route="S_N_01" depart="472.0" departLane="random" departSpeed="10" />
    <vehicle id="W_E_E_02_77" type="standard_car" route="W_E_E_02" depart="480.0" departLane="random" departSpeed="10" />
    <vehicle id="W_E_E_02_78" type="standard_car" route="W_E_E_02" depart="494.0" departLane="random" departSpeed="10" />
    <vehicle id="E_W_W_01_79" type="standard_car" route="E_W_W_01" depart="495.0" departLane="random" departSpeed="10" />
    <vehicle id="N_S_02_80" type="standard_car" route="N_S_02" depart="502.0" departLane="random" departSpeed="10" />
    <vehicle id="E_W_W_01_81" type="standard_car" route="E_W_W_01" depart="502.0" departLane="random" departSpeed="10" />
    <vehicle id="E_N_01_82" type="standard_car" route="E_N_01" depart="503.0" departLane="random" departSpeed="10" />
    <vehicle id="S_N_02_83" type="standard_car" route="S_N_02" depart="505.0" departLane="random" departSpeed="10" />
    <vehicle id="W_E_E_02_84" type="standard_car" route="W_E_E_02" depart="507.0" departLane="random" departSpeed="10" />
    <vehicle id="N_W_S_01_85" type="standard_car" route="N_W_S_01" depart="508.0" departLane="random" departSpeed="10" />
    <vehicle id="E_W_W_01_86" type="standard_car" route="E_W_W_01" depart="508.0" departLane="random" departSpeed="10" />
    <vehicle id="S_N_02_87" type="standard_car" route="S_N_02" depart="509.0" departLane="random" departSpeed="10" />
    <vehicle id="S_N_01_88" type="standard_car" route="S_N_01" depart="509.0" departLane="random" departSpeed="10" />
    <vehicle id="E_W_W_01_89" type="standard_car" route="E_W_W_01" depart="510.0" departLane="random" departSpeed="10" />
    <vehicle id="N_W_N_01_90" type="standard_car" route="N_W_N_01" depart="512.0" departLane="random" departSpeed="10" />
    <vehicle id="N_S_02_91" type="standard_car" route="N_S_02" depart="512.0" departLane="random" departSpeed="10" />
    <vehicle id="W_N_02_92" type="standard_car" route="W_N_02" depart="515.0" departLane="random" departSpeed="10" />
    <vehicle id="N_E_S_02_93" type="standard_car" route="N_E_S_02" depart="517.0" departLane="random" departSpeed="10" />
    <vehicle id="N_W_S_01_94" type="standard_car" route="N_W_S_01" depart="518.0" departLane="random" departSpeed="10" />
    <vehicle id="N_S_02_95" type="standard_car" route="N_S_02" depart="519.0" departLane="random" departSpeed="10" />
    <vehicle id="S_N_02_96" type="standard_car" route="S_N_02" depart="524.0" departLane="random" departSpeed="10" />
    <vehicle id="N_S_02_97" type="standard_car" route="N_S_02" depart="531.0" departLane="random" departSpeed="10" />
    <vehicle id="S_N_01_98" type="standard_car" route="S_N_01" depart="532.0" departLane="random" departSpeed="10" />
    <vehicle id="W_E_E_02_99" type="standard_car" route="W_E_E_02" depart="533.0" departLane="random" departSpeed="10" />
    <vehicle id="E_W_W_01_100" type="standard_car" route="E_W_W_01" depart="539.0" departLane="random" departSpeed="10" />
    <vehicle id="E_W_W_01_101" type="standard_car" route="E_W_W_01" depart="541.0" departLane="random" departSpeed="10" />
    <vehicle id="S_N_02_102" type="standard_car" route="S_N_02" depart="542.0" departLane="random" departSpeed="10" />
    <vehicle id="E_W_W_01_103" type="standard_car" route="E_W_W_01" depart="548.0" departLane="random" departSpeed="10" />
    <vehicle id="W_E_N_02_104" type="standard_car" route="W_E_N_02" depart="551.0" departLane="random" departSpeed="10" />
    <vehicle id="N_S_02_105" type="standard_car" route="N_S_02" depart="551.0" departLane="random" departSpeed="10" />
    <vehicle id="W_E_E_02_106" type="standard_car" route="W_E_E_02" depart="552.0" departLane="random" departSpeed="10" />
    <vehicle id="N_S_01_107" type="standard_car" route="N_S_01" depart="560.0" departLane="random" departSpeed="10" />
    <vehicle id="S_N_01_108" type="standard_car" route="S_N_01" depart="561.0" departLane="random" departSpeed="10" />
    <vehicle id="S_N_02_109" type="standard_car" route="S_N_02" depart="564.0" departLane="random" departSpeed="10" />
    <vehicle id="W_E_E_02_110" type="standard_car" route="W_E_E_02" depart="567.0" departLane="random" departSpeed="10" />
    <vehicle id="E_W_W_01_111" type="standard_car" route="E_W_W_01" depart="568.0" departLane="random" departSpeed="10" />
    <vehicle id="E_W_W_01_112" type="standard_car" route="E_W_W_01" depart="569.0" departLane="random" departSpeed="10" />
    <vehicle id="W_E_E_02_113" type="standard_car" route="W_E_E_02" depart="571.0" departLane="random" departSpeed="10" />
    <vehicle id="W_E_E_02_114" type="standard_car" route="W_E_E_02" depart="571.0" departLane="random" departSpeed="10" />
    <vehicle id="W_E_E_02_115" type="standard_car" route="W_E_E_02" depart="575.0" departLane="random" departSpeed="10" />
    <vehicle id="E_W_N_01_116" type="standard_car" route="E_W_N_01" depart="575.0" departLane="random" departSpeed="10" />
    <vehicle id="W_E_E_02_117" type="standard_car" route="W_E_E_02" depart="581.0" departLane="random" departSpeed="10" />
    <vehicle id="N_S_01_118" type="standard_car" route="N_S_01" depart="582.0" departLane="random" departSpeed="10" />
    <vehicle id="E_W_W_01_119" type="standard_car" route="E_W_W_01" depart="585.0" departLane="random" departSpeed="10" />
    <vehicle id="S_W_W_01_120" type="standard_car" route="S_W_W_01" depart="588.0" departLane="random" departSpeed="10" />
    <vehicle id="E_W_W_01_121" type="standard_car" route="E_W_W_01" depart="588.0" departLane="random" departSpeed="10" />
    <vehicle id="N_S_01_122" type="standard_car" route="N_S_01" depart="589.0" departLane="random" departSpeed="10" />
    <vehicle id="N_S_01_123" type="standard_car" route="N_S_01" depart="589.0" departLane="random" departSpeed="10" />
    <vehicle id="S_N_01_124" type="standard_car" route="S_N_01" depart="595.0" departLane="random" departSpeed="10" />
    <vehicle id="N_E_01_125" type="standard_car" route="N_E_01" depart="596.0" departLane="random" departSpeed="10" />
    <vehicle id="W_E_E_02_126" type="standard_car" route="W_E_E_02" depart="597.0" departLane="random" departSpeed="10" />
    <vehicle id="N_S_02_127" type="standard_car" route="N_S_02" depart="599.0" departLane="random" departSpeed="10" />
    <vehicle id="N_S_01_128" type="standard_car" route="N_S_01" depart="601.0" departLane="random" departSpeed="10" />
    <vehicle id="S_N_02_129" type="standard_car" route="S_N_02" depart="602.0" departLane="random" departSpeed="10" />
    <vehicle id="N_S_02_130" type="standard_car" route="N_S_02" depart="602.0" departLane="random" departSpeed="10" />
    <vehicle id="E_W_W_01_131" type="standard_car" route="E_W_W_01" depart="602.0" departLane="random" departSpeed="10" />
    <vehicle id="N_S_02_132" type="standard_car" route="N_S_02" depart="604.0" departLane="random" departSpeed="10" />
    <vehicle id="S_N_02_133" type="standard_car" route="S_N_02" depart="606.0" departLane="random" departSpeed="10" />
    <vehicle id="W_E_E_02_134" type="standard_car" route="W_E_E_02" depart="611.0" departLane="random" departSpeed="10" />
    <vehicle id="W_N_02_135" type="standard_car" route="W_N_02" depart="612.0" departLane="random" departSpeed="10" />
    <vehicle id="N_S_02_136" type="standard_car" route="N_S_02" depart="612.0" departLane="random" departSpeed="10" />
    <vehicle id="E_W_W_01_137" type="standard_car" route="E_W_W_01" depart="614.0" departLane="random" departSpeed="10" />
    <vehicle id="W_S_02_138" type="standard_car" route="W_S_02" depart="615.0" departLane="random" departSpeed="10" />
    <vehicle id="W_E_E_02_139" type="standard_car" route="W_E_E_02" depart="619.0" departLane="random" departSpeed="10" />
    <vehicle id="W_S_02_140" type="standard_car" route="W_S_02" depart="622.0" departLane="random" departSpeed="10" />
    <vehicle id="N_S_01_141" type="standard_car" route="N_S_01" depart="622.0" departLane="random" departSpeed="10" />
    <vehicle id="W_E_E_02_142" type="standard_car" route="W_E_E_02" depart="626.0" departLane="random" departSpeed="10" />
    <vehicle id="N_E_01_143" type="standard_car" route="N_E_01" depart="627.0" departLane="random" departSpeed="10" />
    <vehicle id="E_W_W_01_144" type="standard_car" route="E_W_W_01" depart="631.0" departLane="random" departSpeed="10" />
    <vehicle id="W_E_E_02_145" type="standard_car" route="W_E_E_02" depart="640.0" departLane="random" departSpeed="10" />
    <vehicle id="E_W_W_01_146" type="standard_car" route="E_W_W_01" depart="642.0" departLane="random" departSpeed="10" />
    <vehicle id="S_N_02_147" type="standard_car" route="S_N_02" depart="643.0" departLane="random" departSpeed="10" />
    <vehicle id="E_W_W_01_148" type="standard_car" route="E_W_W_01" depart="647.0" departLane="random" departSpeed="10" />
    <vehicle id="E_W_W_01_149" type="standard_car" route="E_W_W_01" depart="647.0" departLane="random" departSpeed="10" />
    <vehicle id="N_W_S_01_150" type="standard_car" route="N_W_S_01" depart="647.0" departLane="random" departSpeed="10" />
    <vehicle id="N_S_02_151" type="standard_car" route="N_S_02" depart="647.0" departLane="random" departSpeed="10" />
    <vehicle id="W_E_E_02_152" type="standard_car" route="W_E_E_02" depart="652.0" departLane="random" departSpeed="10" />
    <vehicle id="E_W_W_01_153" type="standard_car" route="E_W_W_01" depart="656.0" departLane="random" departSpeed="10" />
    <vehicle id="S_N_01_154" type="standard_car" route="S_N_01" depart="659.0" departLane="random" departSpeed="10" />
    <vehicle id="N_S_01_155" type="standard_car" route="N_S_01" depart="660.0" departLane="random" departSpeed="10" />
    <vehicle id="S_E_N_02_156" type="standard_car" route="S_E_N_02" depart="663.0" departLane="random" departSpeed="10" />
    <vehicle id="N_S_02_157" type="standard_car" route="N_S_02" depart="663.0" departLane="random" departSpeed="10" />
    <vehicle id="E_W_W_01_158" type="standard_car" route="E_W_W_01" depart="664.0" departLane="random" departSpeed="10" />
    <vehicle id="S_N_01_159" type="standard_car" route="S_N_01" depart="665.0" departLane="random" departSpeed="10" />
    <vehicle id="N_S_02_160" type="standard_car" route="N_S_02" depart="666.0" departLane="random" departSpeed="10" />
    <vehicle id="W_E_S_02_161" type="standard_car" route="W_E_S_02" depart="669.0" departLane="random" departSpeed="10" />
    <vehicle id="W_S_02_162" type="standard_car" route="W_S_02" depart="678.0" departLane="random" departSpeed="10" />
    <vehicle id="E_W_W_01_163" type="standard_car" route="E_W_W_01" depart="678.0" departLane="random" departSpeed="10" />
    <vehicle id="N_S_02_164" type="standard_car" route="N_S_02" depart="679.0" departLane="random" departSpeed="10" />
    <vehicle id="N_S_02_165" type="standard_car" route="N_S_02" depart="680.0" departLane="random" departSpeed="10" />
    <vehicle id="S_N_02_166" type="standard_car" route="S_N_02" depart="680.0" departLane="random" departSpeed="10" />
    <vehicle id="S_N_01_167" type="standard_car" route="S_N_01" depart="681.0" departLane="random" departSpeed="10" />
    <vehicle id="N_S_02_168" type="standard_car" route="N_S_02" depart="681.0" departLane="random" departSpeed="10" />
    <vehicle id="N_S_02_169" type="standard_car" route="N_S_02" depart="684.0" departLane="random" departSpeed="10" />
    <vehicle id="W_E_E_02_170" type="standard_car" route="W_E_E_02" depart="684.0" departLane="random" departSpeed="10" />
    <vehicle id="N_S_01_171" type="standard_car" route="N_S_01" depart="686.0" departLane="random" departSpeed="10" />
    <vehicle id="S_N_01_172" type="standard_car" route="S_N_01" depart="686.0" departLane="random" departSpeed="10" />
    <vehicle id="E_W_W_01_173" type="standard_car" route="E_W_W_01" depart="687.0" departLane="random" departSpeed="10" />
    <vehicle id="S_N_01_174" type="standard_car" route="S_N_01" depart="687.0" departLane="random" departSpeed="10" />
    <vehicle id="N_W_W_01_175" type="standard_car" route="N_W_W_01" depart="695.0" departLane="random" departSpeed="10" />
    <vehicle id="N_S_01_176" type="standard_car" route="N_S_01" depart="707.0" departLane="random" departSpeed="10" />
    <vehicle id="S_N_02_177" type="standard_car" route="S_N_02" depart="707.0" departLane="random" departSpeed="10" />
    <vehicle id="W_E_E_02_178" type="standard_car" route="W_E_E_02" depart="710.0" departLane="random" departSpeed="10" />
    <vehicle id="S_N_02_179" type="standard_car" route="S_N_02" depart="710.0" departLane="random" departSpeed="10" />
    <vehicle id="S_N_01_180" type="standard_car" route="S_N_01" depart="713.0" departLane="random" departSpeed="10" />
    <vehicle id="N_W_S_01_181" type="standard_car" route="N_W_S_01" depart="715.0" departLane="random" departSpeed="10" />
    <vehicle id="W_E_E_02_182" type="standard_car" route="W_E_E_02" depart="715.0" departLane="random" departSpeed="10" />
    <vehicle id="N_S_02_183" type="standard_car" route="N_S_02" depart="715.0" departLane="random" departSpeed="10" />
    <vehicle id="N_S_02_184" type="standard_car" route="N_S_02" depart="716.0" departLane="random" departSpeed="10" />
    <vehicle id="S_N_02_185" type="standard_car" route="S_N_02" depart="717.0" departLane="random" departSpeed="10" />
    <vehicle id="E_S_01_186" type="standard_car" route="E_S_01" depart="717.0" departLane="random" departSpeed="10" />
    <vehicle id="E_W_W_01_187" type="standard_car" route="E_W_W_01" depart="718.0" departLane="random" departSpeed="10" />
    <vehicle id="E_S_01_188" type="standard_car" route="E_S_01" depart="722.0" departLane="random" departSpeed="10" />
    <vehicle id="N_W_S_01_189" type="standard_car" route="N_W_S_01" depart="725.0" departLane="random" departSpeed="10" />
    <vehicle id="S_N_02_190" type="standard_car" route="S_N_02" depart="725.0" departLane="random" departSpeed="10" />
    <vehicle id="N_S_01_191" type="standard_car" route="N_S_01" depart="725.0" departLane="random" departSpeed="10" />
    <vehicle id="S_N_01_192" type="standard_car" route="S_N_01" depart="726.0" departLane="random" departSpeed="10" />
    <vehicle id="N_E_S_02_193" type="standard_car" route="N_E_S_02" depart="729.0" departLane="random" departSpeed="10" />
    <vehicle id="S_E_01_194" type="standard_car" route="S_E_01" depart="731.0" departLane="random" departSpeed="10" />
    <vehicle id="E_W_S_01_195" type="standard_car" route="E_W_S_01" depart="731.0" departLane="random" departSpeed="10" />
    <vehicle id="S_N_01_196" type="standard_car" route="S_N_01" depart="731.0" departLane="random" departSpeed="10" />
    <vehicle id="E_W_S_01_197" type="standard_car" route="E_W_S_01" depart="734.0" departLane="random" departSpeed="10" />
    <vehicle id="S_N_01_198" type="standard_car" route="S_N_01" depart="734.0" departLane="random" departSpeed="10" />
    <vehicle id="N_S_01_199" type="standard_car" route="N_S_01" depart="735.0" departLane="random" departSpeed="10" />
    <vehicle id="N_W_N_01_200" type="standard_car" route="N_W_N_01" depart="736.0" departLane="random" departSpeed="10" />
    <vehicle id="W_E_E_02_201" type="standard_car" route="W_E_E_02" depart="737.0" departLane="random" departSpeed="10" />
    <vehicle id="S_N_01_202" type="standard_car" route="S_N_01" depart="738.0" departLane="random" departSpeed="10" />
    <vehicle id="N_S_01_203" type="standard_car" route="N_S_01" depart="746.0" departLane="random" departSpeed="10" />
    <vehicle id="W_E_E_02_204" type="standard_car" route="W_E_E_02" depart="747.0" departLane="random" departSpeed="10" />
    <vehicle id="N_S_01_205" type="standard_car" route="N_S_01" depart="748.0" departLane="random" departSpeed="10" />
    <vehicle id="E_W_W_01_206" type="standard_car" route="E_W_W_01" depart="750.0" departLane="random" departSpeed="10" />
    <vehicle id="S_N_01_207" type="standard_car" route="S_N_01" depart="752.0" departLane="random" departSpeed="10" />
    <vehicle id="W_E_E_02_208" type="standard_car" route="W_E_E_02" depart="753.0" departLane="random" departSpeed="10" />
    <vehicle id="S_N_01_209" type="standard_car" route="S_N_01" depart="754.0" departLane="random" departSpeed="10" />
    <vehicle id="N_S_02_210" type="standard_car" route="N_S_02" depart="755.0" departLane="random" departSpeed="10" />
    <vehicle id="N_S_01_211" type="standard_car" route="N_S_01" depart="757.0" departLane="random" departSpeed="10" />
    <vehicle id="S_N_02_212" type="standard_car" route="S_N_02" depart="757.0" departLane="random" departSpeed="10" />
    <vehicle id="E_W_W_01_213" type="standard_car" route="E_W_W_01" depart="757.0" departLane="random" departSpeed="10" />
    <vehicle id="N_S_02_214" type="standard_car" route="N_S_02" depart="758.0" departLane="random" departSpeed="10" />
    <vehicle id="S_N_02_215" type="standard_car" route="S_N_02" depart="760.0" departLane="random" departSpeed="10" />
    <vehicle id="N_S_02_216" type="standard_car" route="N_S_02" depart="760.0" departLane="random" departSpeed="10" />
    <vehicle id="E_N_01_217" type="standard_car" route="E_N_01" depart="761.0" departLane="random" departSpeed="10" />
    <vehicle id="S_N_01_218" type="standard_car" route="S_N_01" depart="763.0" departLane="random" departSpeed="10" />
    <vehicle id="N_S_01_219" type="standard_car" route="N_S_01" depart="765.0" departLane="random" departSpeed="10" />
    <vehicle id="E_W_W_01_220" type="standard_car" route="E_W_W_01" depart="766.0" departLane="random" departSpeed="10" />
    <vehicle id="N_W_W_01_221" type="standard_car" route="N_W_W_01" depart="767.0" departLane="random" departSpeed="10" />
    <vehicle id="N_S_02_222" type="standard_car" route="N_S_02" depart="767.0" departLane="random" departSpeed="10" />